JSQMNTWGQUIWQT-OFVILXPXSA-N
     RDKit          2D

 32 36  0  0  0  0  0  0  0  0999 V2000
    5.6169   -7.2212    0.0000 C   0  0  0  0  0  0  0  0  0  0  0  0
    6.3265   -6.8118    0.0000 C   0  0  0  0  0  0  0  0  0  0  0  0
    6.3237   -5.9891    0.0000 C   0  0  0  0  0  0  0  0  0  0  0  0
    5.6151   -5.5838    0.0000 C   0  0  0  0  0  0  0  0  0  0  0  0
    4.9088   -6.8122    0.0000 C   0  0  0  0  0  0  0  0  0  0  0  0
    4.9055   -5.9957    0.0000 C   0  0  0  0  0  0  0  0  0  0  0  0
    4.1280   -5.7465    0.0000 C   0  0  0  0  0  0  0  0  0  0  0  0
    3.6506   -6.4091    0.0000 C   0  0  0  0  0  0  0  0  0  0  0  0
    4.1333   -7.0676    0.0000 N   0  0  0  0  0  0  0  0  0  0  0  0
    5.6167   -8.0384    0.0000 C   0  0  0  0  0  0  0  0  0  0  0  0
    7.0299   -5.5778    0.0000 C   0  0  0  0  0  0  0  0  0  0  0  0
    5.6125   -4.7667    0.0000 C   0  0  0  0  0  0  0  0  0  0  0  0
    6.3188   -4.3558    0.0000 N   0  0  0  0  0  0  0  0  0  0  0  0
    6.3162   -3.5386    0.0000 C   0  0  0  0  0  0  0  0  0  0  0  0
    7.0279   -4.7621    0.0000 C   0  0  0  0  0  0  0  0  0  0  0  0
    7.0226   -3.1277    0.0000 C   0  0  0  0  0  0  0  0  0  0  0  0
    7.7343   -4.3512    0.0000 C   0  0  0  0  0  0  0  0  0  0  0  0
    7.7316   -3.5340    0.0000 C   0  0  0  0  0  0  0  0  0  0  0  0
    5.6110   -3.1320    0.0000 C   0  0  0  0  0  0  0  0  0  0  0  0
    5.6097   -2.3137    0.0000 C   0  0  0  0  0  0  0  0  0  0  0  0
    4.9015   -1.9075    0.0000 C   0  0  0  0  0  0  0  0  0  0  0  0
    4.1942   -2.3184    0.0000 C   0  0  0  0  0  0  0  0  0  0  0  0
    4.1994   -3.1398    0.0000 C   0  0  0  0  0  0  0  0  0  0  0  0
    4.9082   -3.5424    0.0000 C   0  0  0  0  0  0  0  0  0  0  0  0
    8.4380   -3.1231    0.0000 O   0  0  0  0  0  0  0  0  0  0  0  0
    3.4846   -1.9130    0.0000 C   0  0  0  0  0  0  0  0  0  0  0  0
    3.4809   -1.0959    0.0000 O   0  0  0  0  0  0  0  0  0  0  0  0
    2.7788   -2.3249    0.0000 O   0  0  0  0  0  0  0  0  0  0  0  0
    9.1470   -3.5295    0.0000 C   0  0  0  0  0  0  0  0  0  0  0  0
    9.8534   -3.1186    0.0000 C   0  0  0  0  0  0  0  0  0  0  0  0
    7.8457   -5.5726    0.0000 C   0  0  0  0  0  0  0  0  0  0  0  0
    7.4345   -4.8665    0.0000 C   0  0  0  0  0  0  0  0  0  0  0  0
  5  1  2  0
  1  2  1  0
  2  3  2  0
  3  4  1  0
  4  6  2  0
  5  6  1  0
  6  7  1  0
  7  8  2  0
  8  9  1  0
  9  5  1  0
  1 10  1  0
  3 11  1  0
  4 12  1  0
 12 13  1  0
 13 14  1  0
 13 15  1  0
 14 16  1  0
 15 17  1  0
 16 18  1  0
 17 18  1  0
 19 20  2  0
 20 21  1  0
 21 22  2  0
 22 23  1  0
 23 24  2  0
 24 19  1  0
 14 19  1  6
 18 25  1  1
 22 26  1  0
 26 27  2  0
 26 28  1  0
 25 29  1  0
 29 30  1  0
 31 11  1  0
 32 31  1  0
 11 32  1  0
M  END
>  <molecule_name>  (1) 
None

>  <target_name>  (1) 
Complement factor B

>  <organism>  (1) 
Homo sapiens

>  <chembl_id>  (1) 
CHEMBL4639592

>  <sim>  (1) 
0.8095238095238095

>  <activity_info>  (1) 
IC50: 7.54

>  <pACT>  (1) 
7.535

$$$$
NHSANTONQVVKKW-REWPJTCUSA-N
     RDKit          2D

 30 33  0  0  0  0  0  0  0  0999 V2000
   34.4951  -28.0224    0.0000 C   0  0  0  0  0  0  0  0  0  0  0  0
   35.2048  -27.6130    0.0000 C   0  0  0  0  0  0  0  0  0  0  0  0
   35.2019  -26.7903    0.0000 C   0  0  0  0  0  0  0  0  0  0  0  0
   34.4933  -26.3851    0.0000 C   0  0  0  0  0  0  0  0  0  0  0  0
   33.7871  -27.6135    0.0000 C   0  0  0  0  0  0  0  0  0  0  0  0
   33.7838  -26.7970    0.0000 C   0  0  0  0  0  0  0  0  0  0  0  0
   33.0062  -26.5477    0.0000 C   0  0  0  0  0  0  0  0  0  0  0  0
   32.5289  -27.2103    0.0000 C   0  0  0  0  0  0  0  0  0  0  0  0
   33.0115  -27.8689    0.0000 N   0  0  0  0  0  0  0  0  0  0  0  0
   34.4949  -28.8396    0.0000 C   0  0  0  0  0  0  0  0  0  0  0  0
   35.9081  -26.3791    0.0000 C   0  0  0  0  0  0  0  0  0  0  0  0
   34.4907  -25.5679    0.0000 C   0  0  0  0  0  0  0  0  0  0  0  0
   35.1971  -25.1570    0.0000 N   0  0  0  0  0  0  0  0  0  0  0  0
   35.1944  -24.3398    0.0000 C   0  0  0  0  0  0  0  0  0  0  0  0
   35.9061  -25.5633    0.0000 C   0  0  0  0  0  0  0  0  0  0  0  0
   35.9008  -23.9289    0.0000 C   0  0  0  0  0  0  0  0  0  0  0  0
   36.6125  -25.1524    0.0000 C   0  0  0  0  0  0  0  0  0  0  0  0
   36.6098  -24.3353    0.0000 C   0  0  0  0  0  0  0  0  0  0  0  0
   34.4892  -23.9332    0.0000 C   0  0  0  0  0  0  0  0  0  0  0  0
   34.4879  -23.1149    0.0000 C   0  0  0  0  0  0  0  0  0  0  0  0
   33.7797  -22.7087    0.0000 C   0  0  0  0  0  0  0  0  0  0  0  0
   33.0724  -23.1196    0.0000 C   0  0  0  0  0  0  0  0  0  0  0  0
   33.0777  -23.9410    0.0000 C   0  0  0  0  0  0  0  0  0  0  0  0
   33.7864  -24.3436    0.0000 C   0  0  0  0  0  0  0  0  0  0  0  0
   37.3162  -23.9244    0.0000 O   0  0  0  0  0  0  0  0  0  0  0  0
   32.3628  -22.7143    0.0000 C   0  0  0  0  0  0  0  0  0  0  0  0
   32.3591  -21.8971    0.0000 O   0  0  0  0  0  0  0  0  0  0  0  0
   31.6570  -23.1261    0.0000 O   0  0  0  0  0  0  0  0  0  0  0  0
   38.0252  -24.3307    0.0000 C   0  0  0  0  0  0  0  0  0  0  0  0
   38.7316  -23.9198    0.0000 C   0  0  0  0  0  0  0  0  0  0  0  0
  5  1  2  0
  1  2  1  0
  2  3  2  0
  3  4  1  0
  4  6  2  0
  5  6  1  0
  6  7  1  0
  7  8  2  0
  8  9  1  0
  9  5  1  0
  1 10  1  0
  3 11  1  0
  4 12  1  0
 12 13  1  0
 13 14  1  0
 13 15  1  0
 14 16  1  0
 15 17  1  0
 16 18  1  0
 17 18  1  0
 19 20  2  0
 20 21  1  0
 21 22  2  0
 22 23  1  0
 23 24  2  0
 24 19  1  0
 14 19  1  6
 18 25  1  1
 22 26  1  0
 26 27  2  0
 26 28  1  0
 25 29  1  0
 29 30  1  0
M  END
>  <molecule_name>  (2) 
None

>  <target_name>  (2) 
Complement factor B

>  <organism>  (2) 
Homo sapiens

>  <chembl_id>  (2) 
CHEMBL4644208

>  <sim>  (2) 
0.8360655737704918

>  <activity_info>  (2) 
IC50: 7.36

>  <pACT>  (2) 
7.355

$$$$
RENRQMCACQEWFC-UGKGYDQZSA-N
     RDKit          2D

 31 34  0  0  1  0  0  0  0  0999 V2000
   11.7165   -1.6501    0.0000 C   0  0  0  0  0  0  0  0  0  0  0  0
   12.4309   -2.0626    0.0000 C   0  0  0  0  0  0  0  0  0  0  0  0
   13.1455   -1.6501    0.0000 C   0  0  0  0  0  0  0  0  0  0  0  0
   13.8599   -2.0626    0.0000 C   0  0  0  0  0  0  0  0  0  0  0  0
   13.8599   -2.8875    0.0000 C   0  0  0  0  0  0  0  0  0  0  0  0
   13.1455   -3.3000    0.0000 C   0  0  0  0  0  0  0  0  0  0  0  0
   12.4309   -2.8875    0.0000 C   0  0  0  0  0  0  0  0  0  0  0  0
   11.7165   -0.8250    0.0000 O   0  0  0  0  0  0  0  0  0  0  0  0
   11.0020   -2.0626    0.0000 O   0  0  0  0  0  0  0  0  0  0  0  0
   14.5744   -4.1251    0.0000 N   0  0  0  0  0  0  0  0  0  0  0  0
   14.5744   -3.3000    0.0000 C   0  0  0  0  0  0  0  0  0  0  0  0
   15.2889   -2.8875    0.0000 C   0  0  0  0  0  0  0  0  0  0  0  0
   16.0033   -3.3000    0.0000 C   0  0  0  0  0  0  0  0  0  0  0  0
   16.0033   -4.1251    0.0000 C   0  0  0  0  0  0  0  0  0  0  0  0
   15.2889   -4.5375    0.0000 C   0  0  0  0  0  0  0  0  0  0  0  0
   13.8599   -4.5375    0.0000 C   0  0  0  0  0  0  0  0  0  0  0  0
   12.3607   -6.8551    0.0000 N   0  0  0  0  0  0  0  0  0  0  0  0
   11.8759   -6.1876    0.0000 C   0  0  0  0  0  0  0  0  0  0  0  0
   12.3607   -5.5201    0.0000 C   0  0  0  0  0  0  0  0  0  0  0  0
   13.1455   -5.7751    0.0000 C   0  0  0  0  0  0  0  0  0  0  0  0
   13.8599   -5.3626    0.0000 C   0  0  0  0  0  0  0  0  0  0  0  0
   14.5744   -5.7751    0.0000 C   0  0  0  0  0  0  0  0  0  0  0  0
   14.5744   -6.6000    0.0000 C   0  0  0  0  0  0  0  0  0  0  0  0
   13.8599   -7.0125    0.0000 C   0  0  0  0  0  0  0  0  0  0  0  0
   13.1455   -6.6000    0.0000 C   0  0  0  0  0  0  0  0  0  0  0  0
   13.8599   -7.8377    0.0000 C   0  0  0  0  0  0  0  0  0  0  0  0
   15.2889   -5.3626    0.0000 O   0  0  0  0  0  0  0  0  0  0  0  0
   16.0033   -5.7751    0.0000 C   0  0  0  0  0  0  0  0  0  0  0  0
   16.7178   -2.8875    0.0000 O   0  0  0  0  0  0  0  0  0  0  0  0
   17.4324   -3.3000    0.0000 C   0  0  0  0  0  0  0  0  0  0  0  0
   18.1469   -2.8875    0.0000 C   0  0  0  0  0  0  0  0  0  0  0  0
  1  2  1  0
  2  3  2  0
  3  4  1  0
  4  5  2  0
  5  6  1  0
  6  7  2  0
  2  7  1  0
  1  8  2  0
  1  9  1  0
 10 11  1  0
 11 12  1  0
 12 13  1  0
 13 14  1  0
 14 15  1  0
 10 15  1  0
 17 18  1  0
 18 19  2  0
 19 20  1  0
 20 21  2  0
 21 22  1  0
 22 23  2  0
 23 24  1  0
 24 25  2  0
 17 25  1  0
 20 25  1  0
 24 26  1  0
 27 28  1  0
 22 27  1  0
 16 21  1  0
 10 16  1  0
 30 31  1  0
 29 30  1  0
 13 29  1  1
 11  5  1  6
M  END
>  <molecule_name>  (3) 
IPTACOPAN

>  <target_name>  (3) 
Complement factor B

>  <organism>  (3) 
Homo sapiens

>  <chembl_id>  (3) 
CHEMBL4594448

>  <sim>  (3) 
1.0

>  <activity_info>  (3) 
Kd: 8.10|IC50: 7.07

>  <pACT>  (3) 
7.327500000000001

$$$$
MNWOIQKVANULGE-RXVVDRJESA-N
     RDKit          2D

 30 33  0  0  0  0  0  0  0  0999 V2000
   24.6517  -27.7005    0.0000 C   0  0  0  0  0  0  0  0  0  0  0  0
   25.3613  -27.2911    0.0000 C   0  0  0  0  0  0  0  0  0  0  0  0
   25.3585  -26.4684    0.0000 C   0  0  0  0  0  0  0  0  0  0  0  0
   24.6499  -26.0631    0.0000 C   0  0  0  0  0  0  0  0  0  0  0  0
   23.9436  -27.2915    0.0000 C   0  0  0  0  0  0  0  0  0  0  0  0
   23.9403  -26.4750    0.0000 C   0  0  0  0  0  0  0  0  0  0  0  0
   23.1627  -26.2258    0.0000 C   0  0  0  0  0  0  0  0  0  0  0  0
   22.6854  -26.8884    0.0000 C   0  0  0  0  0  0  0  0  0  0  0  0
   23.1681  -27.5469    0.0000 N   0  0  0  0  0  0  0  0  0  0  0  0
   24.6515  -28.5177    0.0000 C   0  0  0  0  0  0  0  0  0  0  0  0
   26.0647  -26.0571    0.0000 O   0  0  0  0  0  0  0  0  0  0  0  0
   24.6472  -25.2460    0.0000 C   0  0  0  0  0  0  0  0  0  0  0  0
   25.3536  -24.8351    0.0000 N   0  0  0  0  0  0  0  0  0  0  0  0
   25.3510  -24.0179    0.0000 C   0  0  0  0  0  0  0  0  0  0  0  0
   26.0626  -25.2414    0.0000 C   0  0  0  0  0  0  0  0  0  0  0  0
   26.0574  -23.6070    0.0000 C   0  0  0  0  0  0  0  0  0  0  0  0
   26.7690  -24.8305    0.0000 C   0  0  0  0  0  0  0  0  0  0  0  0
   26.7664  -24.0133    0.0000 C   0  0  0  0  0  0  0  0  0  0  0  0
   24.6458  -23.6113    0.0000 C   0  0  0  0  0  0  0  0  0  0  0  0
   24.6445  -22.7930    0.0000 C   0  0  0  0  0  0  0  0  0  0  0  0
   23.9363  -22.3868    0.0000 C   0  0  0  0  0  0  0  0  0  0  0  0
   23.2289  -22.7977    0.0000 C   0  0  0  0  0  0  0  0  0  0  0  0
   23.2342  -23.6191    0.0000 C   0  0  0  0  0  0  0  0  0  0  0  0
   23.9430  -24.0217    0.0000 C   0  0  0  0  0  0  0  0  0  0  0  0
   27.4728  -23.6025    0.0000 O   0  0  0  0  0  0  0  0  0  0  0  0
   22.5194  -22.3923    0.0000 C   0  0  0  0  0  0  0  0  0  0  0  0
   22.5157  -21.5752    0.0000 O   0  0  0  0  0  0  0  0  0  0  0  0
   21.8135  -22.8042    0.0000 O   0  0  0  0  0  0  0  0  0  0  0  0
   28.1818  -24.0088    0.0000 C   0  0  0  0  0  0  0  0  0  0  0  0
   26.7739  -26.4631    0.0000 C   0  0  0  0  0  0  0  0  0  0  0  0
  5  1  2  0
  1  2  1  0
  2  3  2  0
  3  4  1  0
  4  6  2  0
  5  6  1  0
  6  7  1  0
  7  8  2  0
  8  9  1  0
  9  5  1  0
  1 10  1  0
  3 11  1  0
  4 12  1  0
 12 13  1  0
 13 14  1  0
 13 15  1  0
 14 16  1  0
 15 17  1  0
 16 18  1  0
 17 18  1  0
 19 20  2  0
 20 21  1  0
 21 22  2  0
 22 23  1  0
 23 24  2  0
 24 19  1  0
 14 19  1  6
 18 25  1  1
 22 26  1  0
 26 27  2  0
 26 28  1  0
 25 29  1  0
 11 30  1  0
M  END
>  <molecule_name>  (4) 
None

>  <target_name>  (4) 
Complement factor B

>  <organism>  (4) 
Homo sapiens

>  <chembl_id>  (4) 
CHEMBL4632794

>  <sim>  (4) 
0.8852459016393442

>  <activity_info>  (4) 
IC50: 7.25

>  <pACT>  (4) 
7.25

$$$$
SUWQILGSQSOVBF-UGKGYDQZSA-N
     RDKit          2D

 29 32  0  0  0  0  0  0  0  0999 V2000
    4.7171  -27.8986    0.0000 C   0  0  0  0  0  0  0  0  0  0  0  0
    5.4268  -27.4892    0.0000 C   0  0  0  0  0  0  0  0  0  0  0  0
    5.4240  -26.6665    0.0000 C   0  0  0  0  0  0  0  0  0  0  0  0
    4.7154  -26.2613    0.0000 C   0  0  0  0  0  0  0  0  0  0  0  0
    4.0091  -27.4896    0.0000 C   0  0  0  0  0  0  0  0  0  0  0  0
    4.0058  -26.6731    0.0000 C   0  0  0  0  0  0  0  0  0  0  0  0
    3.2282  -26.4239    0.0000 C   0  0  0  0  0  0  0  0  0  0  0  0
    2.7509  -27.0865    0.0000 C   0  0  0  0  0  0  0  0  0  0  0  0
    3.2336  -27.7450    0.0000 N   0  0  0  0  0  0  0  0  0  0  0  0
    4.7169  -28.7158    0.0000 C   0  0  0  0  0  0  0  0  0  0  0  0
    6.1301  -26.2553    0.0000 C   0  0  0  0  0  0  0  0  0  0  0  0
    4.7127  -25.4441    0.0000 C   0  0  0  0  0  0  0  0  0  0  0  0
    5.4191  -25.0332    0.0000 N   0  0  0  0  0  0  0  0  0  0  0  0
    5.4165  -24.2160    0.0000 C   0  0  0  0  0  0  0  0  0  0  0  0
    6.1281  -25.4395    0.0000 C   0  0  0  0  0  0  0  0  0  0  0  0
    6.1229  -23.8051    0.0000 C   0  0  0  0  0  0  0  0  0  0  0  0
    6.8345  -25.0286    0.0000 C   0  0  0  0  0  0  0  0  0  0  0  0
    6.8319  -24.2114    0.0000 C   0  0  0  0  0  0  0  0  0  0  0  0
    4.7113  -23.8094    0.0000 C   0  0  0  0  0  0  0  0  0  0  0  0
    4.7100  -22.9911    0.0000 C   0  0  0  0  0  0  0  0  0  0  0  0
    4.0018  -22.5849    0.0000 C   0  0  0  0  0  0  0  0  0  0  0  0
    3.2944  -22.9958    0.0000 C   0  0  0  0  0  0  0  0  0  0  0  0
    3.2997  -23.8172    0.0000 C   0  0  0  0  0  0  0  0  0  0  0  0
    4.0085  -24.2198    0.0000 C   0  0  0  0  0  0  0  0  0  0  0  0
    7.5383  -23.8006    0.0000 O   0  0  0  0  0  0  0  0  0  0  0  0
    2.5849  -22.5905    0.0000 C   0  0  0  0  0  0  0  0  0  0  0  0
    2.5811  -21.7733    0.0000 O   0  0  0  0  0  0  0  0  0  0  0  0
    1.8790  -23.0023    0.0000 O   0  0  0  0  0  0  0  0  0  0  0  0
    8.2473  -24.2069    0.0000 C   0  0  0  0  0  0  0  0  0  0  0  0
  5  1  2  0
  1  2  1  0
  2  3  2  0
  3  4  1  0
  4  6  2  0
  5  6  1  0
  6  7  1  0
  7  8  2  0
  8  9  1  0
  9  5  1  0
  1 10  1  0
  3 11  1  0
  4 12  1  0
 12 13  1  0
 13 14  1  0
 13 15  1  0
 14 16  1  0
 15 17  1  0
 16 18  1  0
 17 18  1  0
 19 20  2  0
 20 21  1  0
 21 22  2  0
 22 23  1  0
 23 24  2  0
 24 19  1  0
 14 19  1  6
 18 25  1  1
 22 26  1  0
 26 27  2  0
 26 28  1  0
 25 29  1  0
M  END
>  <molecule_name>  (5) 
None

>  <target_name>  (5) 
Complement factor B

>  <organism>  (5) 
Homo sapiens

>  <chembl_id>  (5) 
CHEMBL4646504

>  <sim>  (5) 
0.75

>  <activity_info>  (5) 
IC50: 7.22

>  <pACT>  (5) 
7.220000000000001

$$$$
CKPFEBYAYLCXDR-RDPSFJRHSA-N
     RDKit          2D

 31 35  0  0  0  0  0  0  0  0999 V2000
   14.0406  -27.8037    0.0000 C   0  0  0  0  0  0  0  0  0  0  0  0
   14.7502  -27.3943    0.0000 C   0  0  0  0  0  0  0  0  0  0  0  0
   14.7474  -26.5716    0.0000 C   0  0  0  0  0  0  0  0  0  0  0  0
   14.0388  -26.1663    0.0000 C   0  0  0  0  0  0  0  0  0  0  0  0
   13.3325  -27.3947    0.0000 C   0  0  0  0  0  0  0  0  0  0  0  0
   13.3292  -26.5782    0.0000 C   0  0  0  0  0  0  0  0  0  0  0  0
   12.5516  -26.3290    0.0000 C   0  0  0  0  0  0  0  0  0  0  0  0
   12.0743  -26.9916    0.0000 C   0  0  0  0  0  0  0  0  0  0  0  0
   12.5570  -27.6501    0.0000 N   0  0  0  0  0  0  0  0  0  0  0  0
   14.0404  -28.6209    0.0000 C   0  0  0  0  0  0  0  0  0  0  0  0
   15.4536  -26.1603    0.0000 C   0  0  0  0  0  0  0  0  0  0  0  0
   14.0361  -25.3491    0.0000 C   0  0  0  0  0  0  0  0  0  0  0  0
   14.7425  -24.9383    0.0000 N   0  0  0  0  0  0  0  0  0  0  0  0
   14.7399  -24.1211    0.0000 C   0  0  0  0  0  0  0  0  0  0  0  0
   15.4515  -25.3446    0.0000 C   0  0  0  0  0  0  0  0  0  0  0  0
   15.4463  -23.7102    0.0000 C   0  0  0  0  0  0  0  0  0  0  0  0
   16.1579  -24.9337    0.0000 C   0  0  0  0  0  0  0  0  0  0  0  0
   16.1553  -24.1165    0.0000 C   0  0  0  0  0  0  0  0  0  0  0  0
   14.0347  -23.7145    0.0000 C   0  0  0  0  0  0  0  0  0  0  0  0
   14.0334  -22.8962    0.0000 C   0  0  0  0  0  0  0  0  0  0  0  0
   13.3252  -22.4900    0.0000 C   0  0  0  0  0  0  0  0  0  0  0  0
   12.6178  -22.9009    0.0000 C   0  0  0  0  0  0  0  0  0  0  0  0
   12.6231  -23.7223    0.0000 C   0  0  0  0  0  0  0  0  0  0  0  0
   13.3319  -24.1248    0.0000 C   0  0  0  0  0  0  0  0  0  0  0  0
   16.8617  -23.7056    0.0000 O   0  0  0  0  0  0  0  0  0  0  0  0
   11.9083  -22.4955    0.0000 C   0  0  0  0  0  0  0  0  0  0  0  0
   11.9046  -21.6783    0.0000 O   0  0  0  0  0  0  0  0  0  0  0  0
   11.2024  -22.9073    0.0000 O   0  0  0  0  0  0  0  0  0  0  0  0
   16.2694  -26.1551    0.0000 C   0  0  0  0  0  0  0  0  0  0  0  0
   15.8581  -25.4489    0.0000 C   0  0  0  0  0  0  0  0  0  0  0  0
   17.5707  -24.1119    0.0000 C   0  0  0  0  0  0  0  0  0  0  0  0
  5  1  2  0
  1  2  1  0
  2  3  2  0
  3  4  1  0
  4  6  2  0
  5  6  1  0
  6  7  1  0
  7  8  2  0
  8  9  1  0
  9  5  1  0
  1 10  1  0
  3 11  1  0
  4 12  1  0
 12 13  1  0
 13 14  1  0
 13 15  1  0
 14 16  1  0
 15 17  1  0
 16 18  1  0
 17 18  1  0
 19 20  2  0
 20 21  1  0
 21 22  2  0
 22 23  1  0
 23 24  2  0
 24 19  1  0
 14 19  1  6
 18 25  1  1
 22 26  1  0
 26 27  2  0
 26 28  1  0
 29 11  1  0
 30 29  1  0
 11 30  1  0
 25 31  1  0
M  END
>  <molecule_name>  (6) 
None

>  <target_name>  (6) 
Complement factor B

>  <organism>  (6) 
Homo sapiens

>  <chembl_id>  (6) 
CHEMBL4641109

>  <sim>  (6) 
0.7272727272727273

>  <activity_info>  (6) 
IC50: 7.18

>  <pACT>  (6) 
7.1850000000000005

$$$$
JSQMNTWGQUIWQT-OFVILXPXSA-N
     RDKit          2D

 32 36  0  0  0  0  0  0  0  0999 V2000
    5.6169   -7.2212    0.0000 C   0  0  0  0  0  0  0  0  0  0  0  0
    6.3265   -6.8118    0.0000 C   0  0  0  0  0  0  0  0  0  0  0  0
    6.3237   -5.9891    0.0000 C   0  0  0  0  0  0  0  0  0  0  0  0
    5.6151   -5.5838    0.0000 C   0  0  0  0  0  0  0  0  0  0  0  0
    4.9088   -6.8122    0.0000 C   0  0  0  0  0  0  0  0  0  0  0  0
    4.9055   -5.9957    0.0000 C   0  0  0  0  0  0  0  0  0  0  0  0
    4.1280   -5.7465    0.0000 C   0  0  0  0  0  0  0  0  0  0  0  0
    3.6506   -6.4091    0.0000 C   0  0  0  0  0  0  0  0  0  0  0  0
    4.1333   -7.0676    0.0000 N   0  0  0  0  0  0  0  0  0  0  0  0
    5.6167   -8.0384    0.0000 C   0  0  0  0  0  0  0  0  0  0  0  0
    7.0299   -5.5778    0.0000 C   0  0  0  0  0  0  0  0  0  0  0  0
    5.6125   -4.7667    0.0000 C   0  0  0  0  0  0  0  0  0  0  0  0
    6.3188   -4.3558    0.0000 N   0  0  0  0  0  0  0  0  0  0  0  0
    6.3162   -3.5386    0.0000 C   0  0  0  0  0  0  0  0  0  0  0  0
    7.0279   -4.7621    0.0000 C   0  0  0  0  0  0  0  0  0  0  0  0
    7.0226   -3.1277    0.0000 C   0  0  0  0  0  0  0  0  0  0  0  0
    7.7343   -4.3512    0.0000 C   0  0  0  0  0  0  0  0  0  0  0  0
    7.7316   -3.5340    0.0000 C   0  0  0  0  0  0  0  0  0  0  0  0
    5.6110   -3.1320    0.0000 C   0  0  0  0  0  0  0  0  0  0  0  0
    5.6097   -2.3137    0.0000 C   0  0  0  0  0  0  0  0  0  0  0  0
    4.9015   -1.9075    0.0000 C   0  0  0  0  0  0  0  0  0  0  0  0
    4.1942   -2.3184    0.0000 C   0  0  0  0  0  0  0  0  0  0  0  0
    4.1994   -3.1398    0.0000 C   0  0  0  0  0  0  0  0  0  0  0  0
    4.9082   -3.5424    0.0000 C   0  0  0  0  0  0  0  0  0  0  0  0
    8.4380   -3.1231    0.0000 O   0  0  0  0  0  0  0  0  0  0  0  0
    3.4846   -1.9130    0.0000 C   0  0  0  0  0  0  0  0  0  0  0  0
    3.4809   -1.0959    0.0000 O   0  0  0  0  0  0  0  0  0  0  0  0
    2.7788   -2.3249    0.0000 O   0  0  0  0  0  0  0  0  0  0  0  0
    9.1470   -3.5295    0.0000 C   0  0  0  0  0  0  0  0  0  0  0  0
    9.8534   -3.1186    0.0000 C   0  0  0  0  0  0  0  0  0  0  0  0
    7.8457   -5.5726    0.0000 C   0  0  0  0  0  0  0  0  0  0  0  0
    7.4345   -4.8665    0.0000 C   0  0  0  0  0  0  0  0  0  0  0  0
  5  1  2  0
  1  2  1  0
  2  3  2  0
  3  4  1  0
  4  6  2  0
  5  6  1  0
  6  7  1  0
  7  8  2  0
  8  9  1  0
  9  5  1  0
  1 10  1  0
  3 11  1  0
  4 12  1  0
 12 13  1  0
 13 14  1  0
 13 15  1  0
 14 16  1  0
 15 17  1  0
 16 18  1  0
 17 18  1  0
 19 20  2  0
 20 21  1  0
 21 22  2  0
 22 23  1  0
 23 24  2  0
 24 19  1  0
 14 19  1  6
 18 25  1  1
 22 26  1  0
 26 27  2  0
 26 28  1  0
 25 29  1  0
 29 30  1  0
 31 11  1  0
 32 31  1  0
 11 32  1  0
M  END
>  <molecule_name>  (7) 
None

>  <target_name>  (7) 
Complement factor B

>  <organism>  (7) 
Mus musculus

>  <chembl_id>  (7) 
CHEMBL4639592

>  <sim>  (7) 
0.8095238095238095

>  <activity_info>  (7) 
IC50: 7.10

>  <pACT>  (7) 
7.1

$$$$
RENRQMCACQEWFC-UGKGYDQZSA-N
     RDKit          2D

 31 34  0  0  1  0  0  0  0  0999 V2000
   11.7165   -1.6501    0.0000 C   0  0  0  0  0  0  0  0  0  0  0  0
   12.4309   -2.0626    0.0000 C   0  0  0  0  0  0  0  0  0  0  0  0
   13.1455   -1.6501    0.0000 C   0  0  0  0  0  0  0  0  0  0  0  0
   13.8599   -2.0626    0.0000 C   0  0  0  0  0  0  0  0  0  0  0  0
   13.8599   -2.8875    0.0000 C   0  0  0  0  0  0  0  0  0  0  0  0
   13.1455   -3.3000    0.0000 C   0  0  0  0  0  0  0  0  0  0  0  0
   12.4309   -2.8875    0.0000 C   0  0  0  0  0  0  0  0  0  0  0  0
   11.7165   -0.8250    0.0000 O   0  0  0  0  0  0  0  0  0  0  0  0
   11.0020   -2.0626    0.0000 O   0  0  0  0  0  0  0  0  0  0  0  0
   14.5744   -4.1251    0.0000 N   0  0  0  0  0  0  0  0  0  0  0  0
   14.5744   -3.3000    0.0000 C   0  0  0  0  0  0  0  0  0  0  0  0
   15.2889   -2.8875    0.0000 C   0  0  0  0  0  0  0  0  0  0  0  0
   16.0033   -3.3000    0.0000 C   0  0  0  0  0  0  0  0  0  0  0  0
   16.0033   -4.1251    0.0000 C   0  0  0  0  0  0  0  0  0  0  0  0
   15.2889   -4.5375    0.0000 C   0  0  0  0  0  0  0  0  0  0  0  0
   13.8599   -4.5375    0.0000 C   0  0  0  0  0  0  0  0  0  0  0  0
   12.3607   -6.8551    0.0000 N   0  0  0  0  0  0  0  0  0  0  0  0
   11.8759   -6.1876    0.0000 C   0  0  0  0  0  0  0  0  0  0  0  0
   12.3607   -5.5201    0.0000 C   0  0  0  0  0  0  0  0  0  0  0  0
   13.1455   -5.7751    0.0000 C   0  0  0  0  0  0  0  0  0  0  0  0
   13.8599   -5.3626    0.0000 C   0  0  0  0  0  0  0  0  0  0  0  0
   14.5744   -5.7751    0.0000 C   0  0  0  0  0  0  0  0  0  0  0  0
   14.5744   -6.6000    0.0000 C   0  0  0  0  0  0  0  0  0  0  0  0
   13.8599   -7.0125    0.0000 C   0  0  0  0  0  0  0  0  0  0  0  0
   13.1455   -6.6000    0.0000 C   0  0  0  0  0  0  0  0  0  0  0  0
   13.8599   -7.8377    0.0000 C   0  0  0  0  0  0  0  0  0  0  0  0
   15.2889   -5.3626    0.0000 O   0  0  0  0  0  0  0  0  0  0  0  0
   16.0033   -5.7751    0.0000 C   0  0  0  0  0  0  0  0  0  0  0  0
   16.7178   -2.8875    0.0000 O   0  0  0  0  0  0  0  0  0  0  0  0
   17.4324   -3.3000    0.0000 C   0  0  0  0  0  0  0  0  0  0  0  0
   18.1469   -2.8875    0.0000 C   0  0  0  0  0  0  0  0  0  0  0  0
  1  2  1  0
  2  3  2  0
  3  4  1  0
  4  5  2  0
  5  6  1  0
  6  7  2  0
  2  7  1  0
  1  8  2  0
  1  9  1  0
 10 11  1  0
 11 12  1  0
 12 13  1  0
 13 14  1  0
 14 15  1  0
 10 15  1  0
 17 18  1  0
 18 19  2  0
 19 20  1  0
 20 21  2  0
 21 22  1  0
 22 23  2  0
 23 24  1  0
 24 25  2  0
 17 25  1  0
 20 25  1  0
 24 26  1  0
 27 28  1  0
 22 27  1  0
 16 21  1  0
 10 16  1  0
 30 31  1  0
 29 30  1  0
 13 29  1  1
 11  5  1  6
M  END
>  <molecule_name>  (8) 
IPTACOPAN

>  <target_name>  (8) 
Complement factor B

>  <organism>  (8) 
Mus musculus

>  <chembl_id>  (8) 
CHEMBL4594448

>  <sim>  (8) 
1.0

>  <activity_info>  (8) 
IC50: 6.96

>  <pACT>  (8) 
6.96

$$$$
CKPFEBYAYLCXDR-RDPSFJRHSA-N
     RDKit          2D

 31 35  0  0  0  0  0  0  0  0999 V2000
   14.0406  -27.8037    0.0000 C   0  0  0  0  0  0  0  0  0  0  0  0
   14.7502  -27.3943    0.0000 C   0  0  0  0  0  0  0  0  0  0  0  0
   14.7474  -26.5716    0.0000 C   0  0  0  0  0  0  0  0  0  0  0  0
   14.0388  -26.1663    0.0000 C   0  0  0  0  0  0  0  0  0  0  0  0
   13.3325  -27.3947    0.0000 C   0  0  0  0  0  0  0  0  0  0  0  0
   13.3292  -26.5782    0.0000 C   0  0  0  0  0  0  0  0  0  0  0  0
   12.5516  -26.3290    0.0000 C   0  0  0  0  0  0  0  0  0  0  0  0
   12.0743  -26.9916    0.0000 C   0  0  0  0  0  0  0  0  0  0  0  0
   12.5570  -27.6501    0.0000 N   0  0  0  0  0  0  0  0  0  0  0  0
   14.0404  -28.6209    0.0000 C   0  0  0  0  0  0  0  0  0  0  0  0
   15.4536  -26.1603    0.0000 C   0  0  0  0  0  0  0  0  0  0  0  0
   14.0361  -25.3491    0.0000 C   0  0  0  0  0  0  0  0  0  0  0  0
   14.7425  -24.9383    0.0000 N   0  0  0  0  0  0  0  0  0  0  0  0
   14.7399  -24.1211    0.0000 C   0  0  0  0  0  0  0  0  0  0  0  0
   15.4515  -25.3446    0.0000 C   0  0  0  0  0  0  0  0  0  0  0  0
   15.4463  -23.7102    0.0000 C   0  0  0  0  0  0  0  0  0  0  0  0
   16.1579  -24.9337    0.0000 C   0  0  0  0  0  0  0  0  0  0  0  0
   16.1553  -24.1165    0.0000 C   0  0  0  0  0  0  0  0  0  0  0  0
   14.0347  -23.7145    0.0000 C   0  0  0  0  0  0  0  0  0  0  0  0
   14.0334  -22.8962    0.0000 C   0  0  0  0  0  0  0  0  0  0  0  0
   13.3252  -22.4900    0.0000 C   0  0  0  0  0  0  0  0  0  0  0  0
   12.6178  -22.9009    0.0000 C   0  0  0  0  0  0  0  0  0  0  0  0
   12.6231  -23.7223    0.0000 C   0  0  0  0  0  0  0  0  0  0  0  0
   13.3319  -24.1248    0.0000 C   0  0  0  0  0  0  0  0  0  0  0  0
   16.8617  -23.7056    0.0000 O   0  0  0  0  0  0  0  0  0  0  0  0
   11.9083  -22.4955    0.0000 C   0  0  0  0  0  0  0  0  0  0  0  0
   11.9046  -21.6783    0.0000 O   0  0  0  0  0  0  0  0  0  0  0  0
   11.2024  -22.9073    0.0000 O   0  0  0  0  0  0  0  0  0  0  0  0
   16.2694  -26.1551    0.0000 C   0  0  0  0  0  0  0  0  0  0  0  0
   15.8581  -25.4489    0.0000 C   0  0  0  0  0  0  0  0  0  0  0  0
   17.5707  -24.1119    0.0000 C   0  0  0  0  0  0  0  0  0  0  0  0
  5  1  2  0
  1  2  1  0
  2  3  2  0
  3  4  1  0
  4  6  2  0
  5  6  1  0
  6  7  1  0
  7  8  2  0
  8  9  1  0
  9  5  1  0
  1 10  1  0
  3 11  1  0
  4 12  1  0
 12 13  1  0
 13 14  1  0
 13 15  1  0
 14 16  1  0
 15 17  1  0
 16 18  1  0
 17 18  1  0
 19 20  2  0
 20 21  1  0
 21 22  2  0
 22 23  1  0
 23 24  2  0
 24 19  1  0
 14 19  1  6
 18 25  1  1
 22 26  1  0
 26 27  2  0
 26 28  1  0
 29 11  1  0
 30 29  1  0
 11 30  1  0
 25 31  1  0
M  END
>  <molecule_name>  (9) 
None

>  <target_name>  (9) 
Complement factor B

>  <organism>  (9) 
Mus musculus

>  <chembl_id>  (9) 
CHEMBL4641109

>  <sim>  (9) 
0.7272727272727273

>  <activity_info>  (9) 
IC50: 6.92

>  <pACT>  (9) 
6.92

$$$$
NHSANTONQVVKKW-REWPJTCUSA-N
     RDKit          2D

 30 33  0  0  0  0  0  0  0  0999 V2000
   34.4951  -28.0224    0.0000 C   0  0  0  0  0  0  0  0  0  0  0  0
   35.2048  -27.6130    0.0000 C   0  0  0  0  0  0  0  0  0  0  0  0
   35.2019  -26.7903    0.0000 C   0  0  0  0  0  0  0  0  0  0  0  0
   34.4933  -26.3851    0.0000 C   0  0  0  0  0  0  0  0  0  0  0  0
   33.7871  -27.6135    0.0000 C   0  0  0  0  0  0  0  0  0  0  0  0
   33.7838  -26.7970    0.0000 C   0  0  0  0  0  0  0  0  0  0  0  0
   33.0062  -26.5477    0.0000 C   0  0  0  0  0  0  0  0  0  0  0  0
   32.5289  -27.2103    0.0000 C   0  0  0  0  0  0  0  0  0  0  0  0
   33.0115  -27.8689    0.0000 N   0  0  0  0  0  0  0  0  0  0  0  0
   34.4949  -28.8396    0.0000 C   0  0  0  0  0  0  0  0  0  0  0  0
   35.9081  -26.3791    0.0000 C   0  0  0  0  0  0  0  0  0  0  0  0
   34.4907  -25.5679    0.0000 C   0  0  0  0  0  0  0  0  0  0  0  0
   35.1971  -25.1570    0.0000 N   0  0  0  0  0  0  0  0  0  0  0  0
   35.1944  -24.3398    0.0000 C   0  0  0  0  0  0  0  0  0  0  0  0
   35.9061  -25.5633    0.0000 C   0  0  0  0  0  0  0  0  0  0  0  0
   35.9008  -23.9289    0.0000 C   0  0  0  0  0  0  0  0  0  0  0  0
   36.6125  -25.1524    0.0000 C   0  0  0  0  0  0  0  0  0  0  0  0
   36.6098  -24.3353    0.0000 C   0  0  0  0  0  0  0  0  0  0  0  0
   34.4892  -23.9332    0.0000 C   0  0  0  0  0  0  0  0  0  0  0  0
   34.4879  -23.1149    0.0000 C   0  0  0  0  0  0  0  0  0  0  0  0
   33.7797  -22.7087    0.0000 C   0  0  0  0  0  0  0  0  0  0  0  0
   33.0724  -23.1196    0.0000 C   0  0  0  0  0  0  0  0  0  0  0  0
   33.0777  -23.9410    0.0000 C   0  0  0  0  0  0  0  0  0  0  0  0
   33.7864  -24.3436    0.0000 C   0  0  0  0  0  0  0  0  0  0  0  0
   37.3162  -23.9244    0.0000 O   0  0  0  0  0  0  0  0  0  0  0  0
   32.3628  -22.7143    0.0000 C   0  0  0  0  0  0  0  0  0  0  0  0
   32.3591  -21.8971    0.0000 O   0  0  0  0  0  0  0  0  0  0  0  0
   31.6570  -23.1261    0.0000 O   0  0  0  0  0  0  0  0  0  0  0  0
   38.0252  -24.3307    0.0000 C   0  0  0  0  0  0  0  0  0  0  0  0
   38.7316  -23.9198    0.0000 C   0  0  0  0  0  0  0  0  0  0  0  0
  5  1  2  0
  1  2  1  0
  2  3  2  0
  3  4  1  0
  4  6  2  0
  5  6  1  0
  6  7  1  0
  7  8  2  0
  8  9  1  0
  9  5  1  0
  1 10  1  0
  3 11  1  0
  4 12  1  0
 12 13  1  0
 13 14  1  0
 13 15  1  0
 14 16  1  0
 15 17  1  0
 16 18  1  0
 17 18  1  0
 19 20  2  0
 20 21  1  0
 21 22  2  0
 22 23  1  0
 23 24  2  0
 24 19  1  0
 14 19  1  6
 18 25  1  1
 22 26  1  0
 26 27  2  0
 26 28  1  0
 25 29  1  0
 29 30  1  0
M  END
>  <molecule_name>  (10) 
None

>  <target_name>  (10) 
Complement factor B

>  <organism>  (10) 
Mus musculus

>  <chembl_id>  (10) 
CHEMBL4644208

>  <sim>  (10) 
0.8360655737704918

>  <activity_info>  (10) 
IC50: 6.92

>  <pACT>  (10) 
6.92

$$$$
MNWOIQKVANULGE-RXVVDRJESA-N
     RDKit          2D

 30 33  0  0  0  0  0  0  0  0999 V2000
   24.6517  -27.7005    0.0000 C   0  0  0  0  0  0  0  0  0  0  0  0
   25.3613  -27.2911    0.0000 C   0  0  0  0  0  0  0  0  0  0  0  0
   25.3585  -26.4684    0.0000 C   0  0  0  0  0  0  0  0  0  0  0  0
   24.6499  -26.0631    0.0000 C   0  0  0  0  0  0  0  0  0  0  0  0
   23.9436  -27.2915    0.0000 C   0  0  0  0  0  0  0  0  0  0  0  0
   23.9403  -26.4750    0.0000 C   0  0  0  0  0  0  0  0  0  0  0  0
   23.1627  -26.2258    0.0000 C   0  0  0  0  0  0  0  0  0  0  0  0
   22.6854  -26.8884    0.0000 C   0  0  0  0  0  0  0  0  0  0  0  0
   23.1681  -27.5469    0.0000 N   0  0  0  0  0  0  0  0  0  0  0  0
   24.6515  -28.5177    0.0000 C   0  0  0  0  0  0  0  0  0  0  0  0
   26.0647  -26.0571    0.0000 O   0  0  0  0  0  0  0  0  0  0  0  0
   24.6472  -25.2460    0.0000 C   0  0  0  0  0  0  0  0  0  0  0  0
   25.3536  -24.8351    0.0000 N   0  0  0  0  0  0  0  0  0  0  0  0
   25.3510  -24.0179    0.0000 C   0  0  0  0  0  0  0  0  0  0  0  0
   26.0626  -25.2414    0.0000 C   0  0  0  0  0  0  0  0  0  0  0  0
   26.0574  -23.6070    0.0000 C   0  0  0  0  0  0  0  0  0  0  0  0
   26.7690  -24.8305    0.0000 C   0  0  0  0  0  0  0  0  0  0  0  0
   26.7664  -24.0133    0.0000 C   0  0  0  0  0  0  0  0  0  0  0  0
   24.6458  -23.6113    0.0000 C   0  0  0  0  0  0  0  0  0  0  0  0
   24.6445  -22.7930    0.0000 C   0  0  0  0  0  0  0  0  0  0  0  0
   23.9363  -22.3868    0.0000 C   0  0  0  0  0  0  0  0  0  0  0  0
   23.2289  -22.7977    0.0000 C   0  0  0  0  0  0  0  0  0  0  0  0
   23.2342  -23.6191    0.0000 C   0  0  0  0  0  0  0  0  0  0  0  0
   23.9430  -24.0217    0.0000 C   0  0  0  0  0  0  0  0  0  0  0  0
   27.4728  -23.6025    0.0000 O   0  0  0  0  0  0  0  0  0  0  0  0
   22.5194  -22.3923    0.0000 C   0  0  0  0  0  0  0  0  0  0  0  0
   22.5157  -21.5752    0.0000 O   0  0  0  0  0  0  0  0  0  0  0  0
   21.8135  -22.8042    0.0000 O   0  0  0  0  0  0  0  0  0  0  0  0
   28.1818  -24.0088    0.0000 C   0  0  0  0  0  0  0  0  0  0  0  0
   26.7739  -26.4631    0.0000 C   0  0  0  0  0  0  0  0  0  0  0  0
  5  1  2  0
  1  2  1  0
  2  3  2  0
  3  4  1  0
  4  6  2  0
  5  6  1  0
  6  7  1  0
  7  8  2  0
  8  9  1  0
  9  5  1  0
  1 10  1  0
  3 11  1  0
  4 12  1  0
 12 13  1  0
 13 14  1  0
 13 15  1  0
 14 16  1  0
 15 17  1  0
 16 18  1  0
 17 18  1  0
 19 20  2  0
 20 21  1  0
 21 22  2  0
 22 23  1  0
 23 24  2  0
 24 19  1  0
 14 19  1  6
 18 25  1  1
 22 26  1  0
 26 27  2  0
 26 28  1  0
 25 29  1  0
 11 30  1  0
M  END
>  <molecule_name>  (11) 
None

>  <target_name>  (11) 
Complement factor B

>  <organism>  (11) 
Mus musculus

>  <chembl_id>  (11) 
CHEMBL4632794

>  <sim>  (11) 
0.8852459016393442

>  <activity_info>  (11) 
IC50: 6.82

>  <pACT>  (11) 
6.82

$$$$
SUWQILGSQSOVBF-UGKGYDQZSA-N
     RDKit          2D

 29 32  0  0  0  0  0  0  0  0999 V2000
    4.7171  -27.8986    0.0000 C   0  0  0  0  0  0  0  0  0  0  0  0
    5.4268  -27.4892    0.0000 C   0  0  0  0  0  0  0  0  0  0  0  0
    5.4240  -26.6665    0.0000 C   0  0  0  0  0  0  0  0  0  0  0  0
    4.7154  -26.2613    0.0000 C   0  0  0  0  0  0  0  0  0  0  0  0
    4.0091  -27.4896    0.0000 C   0  0  0  0  0  0  0  0  0  0  0  0
    4.0058  -26.6731    0.0000 C   0  0  0  0  0  0  0  0  0  0  0  0
    3.2282  -26.4239    0.0000 C   0  0  0  0  0  0  0  0  0  0  0  0
    2.7509  -27.0865    0.0000 C   0  0  0  0  0  0  0  0  0  0  0  0
    3.2336  -27.7450    0.0000 N   0  0  0  0  0  0  0  0  0  0  0  0
    4.7169  -28.7158    0.0000 C   0  0  0  0  0  0  0  0  0  0  0  0
    6.1301  -26.2553    0.0000 C   0  0  0  0  0  0  0  0  0  0  0  0
    4.7127  -25.4441    0.0000 C   0  0  0  0  0  0  0  0  0  0  0  0
    5.4191  -25.0332    0.0000 N   0  0  0  0  0  0  0  0  0  0  0  0
    5.4165  -24.2160    0.0000 C   0  0  0  0  0  0  0  0  0  0  0  0
    6.1281  -25.4395    0.0000 C   0  0  0  0  0  0  0  0  0  0  0  0
    6.1229  -23.8051    0.0000 C   0  0  0  0  0  0  0  0  0  0  0  0
    6.8345  -25.0286    0.0000 C   0  0  0  0  0  0  0  0  0  0  0  0
    6.8319  -24.2114    0.0000 C   0  0  0  0  0  0  0  0  0  0  0  0
    4.7113  -23.8094    0.0000 C   0  0  0  0  0  0  0  0  0  0  0  0
    4.7100  -22.9911    0.0000 C   0  0  0  0  0  0  0  0  0  0  0  0
    4.0018  -22.5849    0.0000 C   0  0  0  0  0  0  0  0  0  0  0  0
    3.2944  -22.9958    0.0000 C   0  0  0  0  0  0  0  0  0  0  0  0
    3.2997  -23.8172    0.0000 C   0  0  0  0  0  0  0  0  0  0  0  0
    4.0085  -24.2198    0.0000 C   0  0  0  0  0  0  0  0  0  0  0  0
    7.5383  -23.8006    0.0000 O   0  0  0  0  0  0  0  0  0  0  0  0
    2.5849  -22.5905    0.0000 C   0  0  0  0  0  0  0  0  0  0  0  0
    2.5811  -21.7733    0.0000 O   0  0  0  0  0  0  0  0  0  0  0  0
    1.8790  -23.0023    0.0000 O   0  0  0  0  0  0  0  0  0  0  0  0
    8.2473  -24.2069    0.0000 C   0  0  0  0  0  0  0  0  0  0  0  0
  5  1  2  0
  1  2  1  0
  2  3  2  0
  3  4  1  0
  4  6  2  0
  5  6  1  0
  6  7  1  0
  7  8  2  0
  8  9  1  0
  9  5  1  0
  1 10  1  0
  3 11  1  0
  4 12  1  0
 12 13  1  0
 13 14  1  0
 13 15  1  0
 14 16  1  0
 15 17  1  0
 16 18  1  0
 17 18  1  0
 19 20  2  0
 20 21  1  0
 21 22  2  0
 22 23  1  0
 23 24  2  0
 24 19  1  0
 14 19  1  6
 18 25  1  1
 22 26  1  0
 26 27  2  0
 26 28  1  0
 25 29  1  0
M  END
>  <molecule_name>  (12) 
None

>  <target_name>  (12) 
Complement factor B

>  <organism>  (12) 
Mus musculus

>  <chembl_id>  (12) 
CHEMBL4646504

>  <sim>  (12) 
0.75

>  <activity_info>  (12) 
IC50: 6.80

>  <pACT>  (12) 
6.8

$$$$
OTSLYLLOBTYVLP-UHFFFAOYSA-N
     RDKit          2D

 27 30  0  0  0  0  0  0  0  0999 V2000
   24.1953  -16.7150    0.0000 C   0  0  0  0  0  0  0  0  0  0  0  0
   24.9117  -16.3017    0.0000 C   0  0  0  0  0  0  0  0  0  0  0  0
   24.9089  -15.4712    0.0000 C   0  0  0  0  0  0  0  0  0  0  0  0
   24.1935  -15.0620    0.0000 C   0  0  0  0  0  0  0  0  0  0  0  0
   23.4805  -16.3021    0.0000 C   0  0  0  0  0  0  0  0  0  0  0  0
   23.4772  -15.4778    0.0000 C   0  0  0  0  0  0  0  0  0  0  0  0
   22.6921  -15.2263    0.0000 C   0  0  0  0  0  0  0  0  0  0  0  0
   22.2103  -15.8952    0.0000 C   0  0  0  0  0  0  0  0  0  0  0  0
   22.6976  -16.5600    0.0000 N   0  0  0  0  0  0  0  0  0  0  0  0
   24.1951  -17.5400    0.0000 C   0  0  0  0  0  0  0  0  0  0  0  0
   25.6217  -15.0559    0.0000 C   0  0  0  0  0  0  0  0  0  0  0  0
   24.1908  -14.2370    0.0000 C   0  0  0  0  0  0  0  0  0  0  0  0
   24.9040  -13.8223    0.0000 N   0  0  0  0  0  0  0  0  0  0  0  0
   24.9013  -12.9973    0.0000 C   0  0  0  0  0  0  0  0  0  0  0  0
   25.6197  -14.2325    0.0000 C   0  0  0  0  0  0  0  0  0  0  0  0
   25.6145  -12.5825    0.0000 C   0  0  0  0  0  0  0  0  0  0  0  0
   26.3329  -13.8176    0.0000 C   0  0  0  0  0  0  0  0  0  0  0  0
   26.3302  -12.9926    0.0000 C   0  0  0  0  0  0  0  0  0  0  0  0
   24.1894  -12.5909    0.0000 C   0  0  0  0  0  0  0  0  0  0  0  0
   24.1881  -11.7648    0.0000 C   0  0  0  0  0  0  0  0  0  0  0  0
   23.4731  -11.3548    0.0000 C   0  0  0  0  0  0  0  0  0  0  0  0
   22.7590  -11.7696    0.0000 C   0  0  0  0  0  0  0  0  0  0  0  0
   22.7643  -12.5988    0.0000 C   0  0  0  0  0  0  0  0  0  0  0  0
   23.4799  -13.0053    0.0000 C   0  0  0  0  0  0  0  0  0  0  0  0
   22.0427  -11.3604    0.0000 C   0  0  0  0  0  0  0  0  0  0  0  0
   22.0389  -10.5354    0.0000 O   0  0  0  0  0  0  0  0  0  0  0  0
   21.3301  -11.7761    0.0000 O   0  0  0  0  0  0  0  0  0  0  0  0
  5  1  2  0
  1  2  1  0
  2  3  2  0
  3  4  1  0
  4  6  2  0
  5  6  1  0
  6  7  1  0
  7  8  2  0
  8  9  1  0
  9  5  1  0
  1 10  1  0
  3 11  1  0
  4 12  1  0
 12 13  1  0
 13 14  1  0
 13 15  1  0
 14 16  1  0
 15 17  1  0
 16 18  1  0
 17 18  1  0
 19 20  2  0
 20 21  1  0
 21 22  2  0
 22 23  1  0
 23 24  2  0
 24 19  1  0
 14 19  1  0
 22 25  1  0
 25 26  2  0
 25 27  1  0
M  END
>  <molecule_name>  (13) 
None

>  <target_name>  (13) 
Complement factor B

>  <organism>  (13) 
Homo sapiens

>  <chembl_id>  (13) 
CHEMBL4644994

>  <sim>  (13) 
0.5970149253731343

>  <activity_info>  (13) 
IC50: 6.52

>  <pACT>  (13) 
6.515000000000001

$$$$
HVCYKNQNKTXZHC-UHFFFAOYSA-N
     RDKit          2D

 27 30  0  0  0  0  0  0  0  0999 V2000
    4.9748  -16.7699    0.0000 C   0  0  0  0  0  0  0  0  0  0  0  0
    5.6914  -16.3566    0.0000 C   0  0  0  0  0  0  0  0  0  0  0  0
    5.6885  -15.5260    0.0000 C   0  0  0  0  0  0  0  0  0  0  0  0
    4.9730  -15.1169    0.0000 C   0  0  0  0  0  0  0  0  0  0  0  0
    4.2601  -16.3571    0.0000 C   0  0  0  0  0  0  0  0  0  0  0  0
    4.2567  -15.5327    0.0000 C   0  0  0  0  0  0  0  0  0  0  0  0
    3.4717  -15.2811    0.0000 C   0  0  0  0  0  0  0  0  0  0  0  0
    2.9898  -15.9500    0.0000 C   0  0  0  0  0  0  0  0  0  0  0  0
    3.4771  -16.6149    0.0000 N   0  0  0  0  0  0  0  0  0  0  0  0
    4.9746  -17.5949    0.0000 C   0  0  0  0  0  0  0  0  0  0  0  0
    6.4014  -15.1108    0.0000 C   0  0  0  0  0  0  0  0  0  0  0  0
    4.9704  -14.2918    0.0000 C   0  0  0  0  0  0  0  0  0  0  0  0
    5.6836  -13.8770    0.0000 N   0  0  0  0  0  0  0  0  0  0  0  0
    5.6810  -13.0520    0.0000 C   0  0  0  0  0  0  0  0  0  0  0  0
    6.3994  -14.2872    0.0000 C   0  0  0  0  0  0  0  0  0  0  0  0
    6.3941  -12.6372    0.0000 C   0  0  0  0  0  0  0  0  0  0  0  0
    7.1126  -13.8725    0.0000 C   0  0  0  0  0  0  0  0  0  0  0  0
    7.1099  -13.0474    0.0000 C   0  0  0  0  0  0  0  0  0  0  0  0
    4.9690  -12.6457    0.0000 C   0  0  0  0  0  0  0  0  0  0  0  0
    4.9677  -11.8196    0.0000 C   0  0  0  0  0  0  0  0  0  0  0  0
    4.2527  -11.4094    0.0000 C   0  0  0  0  0  0  0  0  0  0  0  0
    3.5385  -11.8243    0.0000 C   0  0  0  0  0  0  0  0  0  0  0  0
    3.5439  -12.6536    0.0000 C   0  0  0  0  0  0  0  0  0  0  0  0
    4.2595  -13.0599    0.0000 C   0  0  0  0  0  0  0  0  0  0  0  0
    2.8222  -11.4150    0.0000 C   0  0  0  0  0  0  0  0  0  0  0  0
    2.8184  -10.5900    0.0000 O   0  0  0  0  0  0  0  0  0  0  0  0
    2.1095  -11.8308    0.0000 N   0  0  0  0  0  0  0  0  0  0  0  0
  5  1  2  0
  1  2  1  0
  2  3  2  0
  3  4  1  0
  4  6  2  0
  5  6  1  0
  6  7  1  0
  7  8  2  0
  8  9  1  0
  9  5  1  0
  1 10  1  0
  3 11  1  0
  4 12  1  0
 12 13  1  0
 13 14  1  0
 13 15  1  0
 14 16  1  0
 15 17  1  0
 16 18  1  0
 17 18  1  0
 19 20  2  0
 20 21  1  0
 21 22  2  0
 22 23  1  0
 23 24  2  0
 24 19  1  0
 14 19  1  0
 22 25  1  0
 25 26  2  0
 25 27  1  0
M  END
>  <molecule_name>  (14) 
None

>  <target_name>  (14) 
Complement factor B

>  <organism>  (14) 
Homo sapiens

>  <chembl_id>  (14) 
CHEMBL4647418

>  <sim>  (14) 
0.5138888888888888

>  <activity_info>  (14) 
IC50: 6.15

>  <pACT>  (14) 
6.15

$$$$
OTSLYLLOBTYVLP-UHFFFAOYSA-N
     RDKit          2D

 27 30  0  0  0  0  0  0  0  0999 V2000
   24.1953  -16.7150    0.0000 C   0  0  0  0  0  0  0  0  0  0  0  0
   24.9117  -16.3017    0.0000 C   0  0  0  0  0  0  0  0  0  0  0  0
   24.9089  -15.4712    0.0000 C   0  0  0  0  0  0  0  0  0  0  0  0
   24.1935  -15.0620    0.0000 C   0  0  0  0  0  0  0  0  0  0  0  0
   23.4805  -16.3021    0.0000 C   0  0  0  0  0  0  0  0  0  0  0  0
   23.4772  -15.4778    0.0000 C   0  0  0  0  0  0  0  0  0  0  0  0
   22.6921  -15.2263    0.0000 C   0  0  0  0  0  0  0  0  0  0  0  0
   22.2103  -15.8952    0.0000 C   0  0  0  0  0  0  0  0  0  0  0  0
   22.6976  -16.5600    0.0000 N   0  0  0  0  0  0  0  0  0  0  0  0
   24.1951  -17.5400    0.0000 C   0  0  0  0  0  0  0  0  0  0  0  0
   25.6217  -15.0559    0.0000 C   0  0  0  0  0  0  0  0  0  0  0  0
   24.1908  -14.2370    0.0000 C   0  0  0  0  0  0  0  0  0  0  0  0
   24.9040  -13.8223    0.0000 N   0  0  0  0  0  0  0  0  0  0  0  0
   24.9013  -12.9973    0.0000 C   0  0  0  0  0  0  0  0  0  0  0  0
   25.6197  -14.2325    0.0000 C   0  0  0  0  0  0  0  0  0  0  0  0
   25.6145  -12.5825    0.0000 C   0  0  0  0  0  0  0  0  0  0  0  0
   26.3329  -13.8176    0.0000 C   0  0  0  0  0  0  0  0  0  0  0  0
   26.3302  -12.9926    0.0000 C   0  0  0  0  0  0  0  0  0  0  0  0
   24.1894  -12.5909    0.0000 C   0  0  0  0  0  0  0  0  0  0  0  0
   24.1881  -11.7648    0.0000 C   0  0  0  0  0  0  0  0  0  0  0  0
   23.4731  -11.3548    0.0000 C   0  0  0  0  0  0  0  0  0  0  0  0
   22.7590  -11.7696    0.0000 C   0  0  0  0  0  0  0  0  0  0  0  0
   22.7643  -12.5988    0.0000 C   0  0  0  0  0  0  0  0  0  0  0  0
   23.4799  -13.0053    0.0000 C   0  0  0  0  0  0  0  0  0  0  0  0
   22.0427  -11.3604    0.0000 C   0  0  0  0  0  0  0  0  0  0  0  0
   22.0389  -10.5354    0.0000 O   0  0  0  0  0  0  0  0  0  0  0  0
   21.3301  -11.7761    0.0000 O   0  0  0  0  0  0  0  0  0  0  0  0
  5  1  2  0
  1  2  1  0
  2  3  2  0
  3  4  1  0
  4  6  2  0
  5  6  1  0
  6  7  1  0
  7  8  2  0
  8  9  1  0
  9  5  1  0
  1 10  1  0
  3 11  1  0
  4 12  1  0
 12 13  1  0
 13 14  1  0
 13 15  1  0
 14 16  1  0
 15 17  1  0
 16 18  1  0
 17 18  1  0
 19 20  2  0
 20 21  1  0
 21 22  2  0
 22 23  1  0
 23 24  2  0
 24 19  1  0
 14 19  1  0
 22 25  1  0
 25 26  2  0
 25 27  1  0
M  END
>  <molecule_name>  (15) 
None

>  <target_name>  (15) 
Complement factor B

>  <organism>  (15) 
Mus musculus

>  <chembl_id>  (15) 
CHEMBL4644994

>  <sim>  (15) 
0.5970149253731343

>  <activity_info>  (15) 
IC50: 5.64

>  <pACT>  (15) 
5.64

$$$$
MBNDMTBONUNJAQ-GJZGRUSLSA-N
     RDKit          2D

 22 24  0  0  0  0  0  0  0  0999 V2000
   33.7770   -6.6351    0.0000 C   0  0  0  0  0  0  0  0  0  0  0  0
   34.4866   -6.2257    0.0000 C   0  0  0  0  0  0  0  0  0  0  0  0
   34.4838   -5.4030    0.0000 C   0  0  0  0  0  0  0  0  0  0  0  0
   33.7752   -4.9978    0.0000 C   0  0  0  0  0  0  0  0  0  0  0  0
   33.0689   -6.2262    0.0000 C   0  0  0  0  0  0  0  0  0  0  0  0
   33.0656   -5.4097    0.0000 C   0  0  0  0  0  0  0  0  0  0  0  0
   32.2880   -5.1604    0.0000 C   0  0  0  0  0  0  0  0  0  0  0  0
   31.8107   -5.8230    0.0000 C   0  0  0  0  0  0  0  0  0  0  0  0
   32.2934   -6.4816    0.0000 N   0  0  0  0  0  0  0  0  0  0  0  0
   33.7768   -7.4523    0.0000 C   0  0  0  0  0  0  0  0  0  0  0  0
   35.1900   -4.9918    0.0000 C   0  0  0  0  0  0  0  0  0  0  0  0
   33.7725   -4.1806    0.0000 C   0  0  0  0  0  0  0  0  0  0  0  0
   34.4789   -3.7697    0.0000 N   0  0  0  0  0  0  0  0  0  0  0  0
   34.4763   -2.9525    0.0000 C   0  0  0  0  0  0  0  0  0  0  0  0
   35.1880   -4.1760    0.0000 C   0  0  0  0  0  0  0  0  0  0  0  0
   35.1827   -2.5416    0.0000 C   0  0  0  0  0  0  0  0  0  0  0  0
   35.8943   -3.7651    0.0000 C   0  0  0  0  0  0  0  0  0  0  0  0
   35.8917   -2.9480    0.0000 C   0  0  0  0  0  0  0  0  0  0  0  0
   33.7711   -2.5459    0.0000 C   0  0  0  0  0  0  0  0  0  0  0  0
   36.5981   -2.5371    0.0000 O   0  0  0  0  0  0  0  0  0  0  0  0
   37.3071   -2.9434    0.0000 C   0  0  0  0  0  0  0  0  0  0  0  0
   33.0636   -2.9550    0.0000 O   0  0  0  0  0  0  0  0  0  0  0  0
  5  1  2  0
  1  2  1  0
  2  3  2  0
  3  4  1  0
  4  6  2  0
  5  6  1  0
  6  7  1  0
  7  8  2  0
  8  9  1  0
  9  5  1  0
  1 10  1  0
  3 11  1  0
  4 12  1  0
 12 13  1  0
 13 14  1  0
 13 15  1  0
 14 16  1  0
 15 17  1  0
 16 18  1  0
 17 18  1  0
 14 19  1  6
 18 20  1  1
 20 21  1  0
 19 22  1  0
M  END
>  <molecule_name>  (16) 
None

>  <target_name>  (16) 
Complement factor B

>  <organism>  (16) 
Homo sapiens

>  <chembl_id>  (16) 
CHEMBL4634827

>  <sim>  (16) 
0.5072463768115942

>  <activity_info>  (16) 
IC50: 5.47

>  <pACT>  (16) 
5.47

$$$$
GPVRSVAIVVQZMJ-UHFFFAOYSA-N
     RDKit          2D

 26 29  0  0  0  0  0  0  0  0999 V2000
   13.2357  -27.0360    0.0000 C   0  0  0  0  0  0  0  0  0  0  0  0
   13.9454  -26.6266    0.0000 C   0  0  0  0  0  0  0  0  0  0  0  0
   13.9426  -25.8039    0.0000 C   0  0  0  0  0  0  0  0  0  0  0  0
   13.2340  -25.3987    0.0000 C   0  0  0  0  0  0  0  0  0  0  0  0
   12.5277  -26.6271    0.0000 C   0  0  0  0  0  0  0  0  0  0  0  0
   12.5244  -25.8106    0.0000 C   0  0  0  0  0  0  0  0  0  0  0  0
   11.7468  -25.5613    0.0000 C   0  0  0  0  0  0  0  0  0  0  0  0
   11.2695  -26.2239    0.0000 C   0  0  0  0  0  0  0  0  0  0  0  0
   11.7522  -26.8824    0.0000 N   0  0  0  0  0  0  0  0  0  0  0  0
   13.2355  -27.8532    0.0000 C   0  0  0  0  0  0  0  0  0  0  0  0
   14.6487  -25.3927    0.0000 C   0  0  0  0  0  0  0  0  0  0  0  0
   13.2313  -24.5815    0.0000 C   0  0  0  0  0  0  0  0  0  0  0  0
   13.9377  -24.1706    0.0000 N   0  0  0  0  0  0  0  0  0  0  0  0
   13.9351  -23.3534    0.0000 C   0  0  0  0  0  0  0  0  0  0  0  0
   14.6467  -24.5769    0.0000 C   0  0  0  0  0  0  0  0  0  0  0  0
   14.6415  -22.9425    0.0000 C   0  0  0  0  0  0  0  0  0  0  0  0
   15.3531  -24.1660    0.0000 C   0  0  0  0  0  0  0  0  0  0  0  0
   15.3505  -23.3488    0.0000 C   0  0  0  0  0  0  0  0  0  0  0  0
   13.2299  -22.9468    0.0000 C   0  0  0  0  0  0  0  0  0  0  0  0
   13.2286  -22.1285    0.0000 C   0  0  0  0  0  0  0  0  0  0  0  0
   12.5204  -21.7223    0.0000 C   0  0  0  0  0  0  0  0  0  0  0  0
   11.8130  -22.1332    0.0000 C   0  0  0  0  0  0  0  0  0  0  0  0
   11.8183  -22.9546    0.0000 C   0  0  0  0  0  0  0  0  0  0  0  0
   12.5271  -23.3572    0.0000 C   0  0  0  0  0  0  0  0  0  0  0  0
   16.0569  -22.9380    0.0000 C   0  0  0  0  0  0  0  0  0  0  0  0
   16.7659  -23.3443    0.0000 O   0  0  0  0  0  0  0  0  0  0  0  0
  5  1  2  0
  1  2  1  0
  2  3  2  0
  3  4  1  0
  4  6  2  0
  5  6  1  0
  6  7  1  0
  7  8  2  0
  8  9  1  0
  9  5  1  0
  1 10  1  0
  3 11  1  0
  4 12  1  0
 12 13  1  0
 13 14  1  0
 13 15  1  0
 14 16  1  0
 15 17  1  0
 16 18  1  0
 17 18  1  0
 19 20  2  0
 20 21  1  0
 21 22  2  0
 22 23  1  0
 23 24  2  0
 24 19  1  0
 14 19  1  0
 18 25  1  0
 25 26  1  0
M  END
>  <molecule_name>  (17) 
None

>  <target_name>  (17) 
Complement factor B

>  <organism>  (17) 
Homo sapiens

>  <chembl_id>  (17) 
CHEMBL4646691

>  <sim>  (17) 
0.5362318840579711

>  <activity_info>  (17) 
IC50: 5.37

>  <pACT>  (17) 
5.369999999999999

$$$$
YMPJBKLLEMBQMA-UHFFFAOYSA-N
     RDKit          2D

 26 29  0  0  0  0  0  0  0  0999 V2000
   33.7233  -27.5065    0.0000 C   0  0  0  0  0  0  0  0  0  0  0  0
   34.4330  -27.0971    0.0000 C   0  0  0  0  0  0  0  0  0  0  0  0
   34.4301  -26.2744    0.0000 C   0  0  0  0  0  0  0  0  0  0  0  0
   33.7215  -25.8692    0.0000 C   0  0  0  0  0  0  0  0  0  0  0  0
   33.0153  -27.0976    0.0000 C   0  0  0  0  0  0  0  0  0  0  0  0
   33.0120  -26.2811    0.0000 C   0  0  0  0  0  0  0  0  0  0  0  0
   32.2344  -26.0318    0.0000 C   0  0  0  0  0  0  0  0  0  0  0  0
   31.7571  -26.6944    0.0000 C   0  0  0  0  0  0  0  0  0  0  0  0
   32.2397  -27.3529    0.0000 N   0  0  0  0  0  0  0  0  0  0  0  0
   33.7231  -28.3237    0.0000 C   0  0  0  0  0  0  0  0  0  0  0  0
   35.1363  -25.8632    0.0000 C   0  0  0  0  0  0  0  0  0  0  0  0
   33.7189  -25.0520    0.0000 C   0  0  0  0  0  0  0  0  0  0  0  0
   34.4253  -24.6411    0.0000 N   0  0  0  0  0  0  0  0  0  0  0  0
   34.4226  -23.8239    0.0000 C   0  0  0  0  0  0  0  0  0  0  0  0
   35.1343  -25.0474    0.0000 C   0  0  0  0  0  0  0  0  0  0  0  0
   35.1290  -23.4130    0.0000 C   0  0  0  0  0  0  0  0  0  0  0  0
   35.8407  -24.6365    0.0000 C   0  0  0  0  0  0  0  0  0  0  0  0
   35.8380  -23.8194    0.0000 C   0  0  0  0  0  0  0  0  0  0  0  0
   36.5444  -23.4085    0.0000 O   0  0  0  0  0  0  0  0  0  0  0  0
   37.2535  -23.8148    0.0000 C   0  0  0  0  0  0  0  0  0  0  0  0
   33.7174  -23.4173    0.0000 C   0  0  0  0  0  0  0  0  0  0  0  0
   33.7161  -22.5990    0.0000 C   0  0  0  0  0  0  0  0  0  0  0  0
   33.0080  -22.1928    0.0000 C   0  0  0  0  0  0  0  0  0  0  0  0
   32.3006  -22.6037    0.0000 C   0  0  0  0  0  0  0  0  0  0  0  0
   32.3059  -23.4251    0.0000 C   0  0  0  0  0  0  0  0  0  0  0  0
   33.0146  -23.8277    0.0000 C   0  0  0  0  0  0  0  0  0  0  0  0
  5  1  2  0
  1  2  1  0
  2  3  2  0
  3  4  1  0
  4  6  2  0
  5  6  1  0
  6  7  1  0
  7  8  2  0
  8  9  1  0
  9  5  1  0
  1 10  1  0
  3 11  1  0
  4 12  1  0
 12 13  1  0
 13 14  1  0
 13 15  1  0
 14 16  1  0
 15 17  1  0
 16 18  1  0
 17 18  1  0
 18 19  1  0
 19 20  1  0
 21 22  2  0
 22 23  1  0
 23 24  2  0
 24 25  1  0
 25 26  2  0
 26 21  1  0
 14 21  1  0
M  END
>  <molecule_name>  (18) 
None

>  <target_name>  (18) 
Complement factor B

>  <organism>  (18) 
Homo sapiens

>  <chembl_id>  (18) 
CHEMBL4633437

>  <sim>  (18) 
0.5970149253731343

>  <activity_info>  (18) 
IC50: 5.28

>  <pACT>  (18) 
5.279999999999999

$$$$
MBNDMTBONUNJAQ-GJZGRUSLSA-N
     RDKit          2D

 22 24  0  0  0  0  0  0  0  0999 V2000
   33.7770   -6.6351    0.0000 C   0  0  0  0  0  0  0  0  0  0  0  0
   34.4866   -6.2257    0.0000 C   0  0  0  0  0  0  0  0  0  0  0  0
   34.4838   -5.4030    0.0000 C   0  0  0  0  0  0  0  0  0  0  0  0
   33.7752   -4.9978    0.0000 C   0  0  0  0  0  0  0  0  0  0  0  0
   33.0689   -6.2262    0.0000 C   0  0  0  0  0  0  0  0  0  0  0  0
   33.0656   -5.4097    0.0000 C   0  0  0  0  0  0  0  0  0  0  0  0
   32.2880   -5.1604    0.0000 C   0  0  0  0  0  0  0  0  0  0  0  0
   31.8107   -5.8230    0.0000 C   0  0  0  0  0  0  0  0  0  0  0  0
   32.2934   -6.4816    0.0000 N   0  0  0  0  0  0  0  0  0  0  0  0
   33.7768   -7.4523    0.0000 C   0  0  0  0  0  0  0  0  0  0  0  0
   35.1900   -4.9918    0.0000 C   0  0  0  0  0  0  0  0  0  0  0  0
   33.7725   -4.1806    0.0000 C   0  0  0  0  0  0  0  0  0  0  0  0
   34.4789   -3.7697    0.0000 N   0  0  0  0  0  0  0  0  0  0  0  0
   34.4763   -2.9525    0.0000 C   0  0  0  0  0  0  0  0  0  0  0  0
   35.1880   -4.1760    0.0000 C   0  0  0  0  0  0  0  0  0  0  0  0
   35.1827   -2.5416    0.0000 C   0  0  0  0  0  0  0  0  0  0  0  0
   35.8943   -3.7651    0.0000 C   0  0  0  0  0  0  0  0  0  0  0  0
   35.8917   -2.9480    0.0000 C   0  0  0  0  0  0  0  0  0  0  0  0
   33.7711   -2.5459    0.0000 C   0  0  0  0  0  0  0  0  0  0  0  0
   36.5981   -2.5371    0.0000 O   0  0  0  0  0  0  0  0  0  0  0  0
   37.3071   -2.9434    0.0000 C   0  0  0  0  0  0  0  0  0  0  0  0
   33.0636   -2.9550    0.0000 O   0  0  0  0  0  0  0  0  0  0  0  0
  5  1  2  0
  1  2  1  0
  2  3  2  0
  3  4  1  0
  4  6  2  0
  5  6  1  0
  6  7  1  0
  7  8  2  0
  8  9  1  0
  9  5  1  0
  1 10  1  0
  3 11  1  0
  4 12  1  0
 12 13  1  0
 13 14  1  0
 13 15  1  0
 14 16  1  0
 15 17  1  0
 16 18  1  0
 17 18  1  0
 14 19  1  6
 18 20  1  1
 20 21  1  0
 19 22  1  0
M  END
>  <molecule_name>  (19) 
None

>  <target_name>  (19) 
HERG

>  <organism>  (19) 
Homo sapiens

>  <chembl_id>  (19) 
CHEMBL4634827

>  <sim>  (19) 
0.5072463768115942

>  <activity_info>  (19) 
IC50: 4.85

>  <pACT>  (19) 
4.85

$$$$
JTBTYGJFYMKDQG-UHFFFAOYSA-N
     RDKit          2D

 25 28  0  0  0  0  0  0  0  0999 V2000
   13.4999  -16.6272    0.0000 C   0  0  0  0  0  0  0  0  0  0  0  0
   14.2096  -16.2177    0.0000 C   0  0  0  0  0  0  0  0  0  0  0  0
   14.2067  -15.3951    0.0000 C   0  0  0  0  0  0  0  0  0  0  0  0
   13.4981  -14.9898    0.0000 C   0  0  0  0  0  0  0  0  0  0  0  0
   12.7918  -16.2182    0.0000 C   0  0  0  0  0  0  0  0  0  0  0  0
   12.7885  -15.4017    0.0000 C   0  0  0  0  0  0  0  0  0  0  0  0
   12.0110  -15.1525    0.0000 C   0  0  0  0  0  0  0  0  0  0  0  0
   11.5337  -15.8150    0.0000 C   0  0  0  0  0  0  0  0  0  0  0  0
   12.0163  -16.4736    0.0000 N   0  0  0  0  0  0  0  0  0  0  0  0
   13.4997  -17.4443    0.0000 C   0  0  0  0  0  0  0  0  0  0  0  0
   14.9129  -14.9838    0.0000 C   0  0  0  0  0  0  0  0  0  0  0  0
   13.4955  -14.1726    0.0000 C   0  0  0  0  0  0  0  0  0  0  0  0
   14.2019  -13.7617    0.0000 N   0  0  0  0  0  0  0  0  0  0  0  0
   14.1992  -12.9445    0.0000 C   0  0  0  0  0  0  0  0  0  0  0  0
   14.9109  -14.1680    0.0000 C   0  0  0  0  0  0  0  0  0  0  0  0
   14.9056  -12.5337    0.0000 C   0  0  0  0  0  0  0  0  0  0  0  0
   15.6173  -13.7572    0.0000 C   0  0  0  0  0  0  0  0  0  0  0  0
   15.6146  -12.9400    0.0000 C   0  0  0  0  0  0  0  0  0  0  0  0
   16.3210  -12.5291    0.0000 O   0  0  0  0  0  0  0  0  0  0  0  0
   13.4940  -12.5380    0.0000 C   0  0  0  0  0  0  0  0  0  0  0  0
   13.4927  -11.7197    0.0000 C   0  0  0  0  0  0  0  0  0  0  0  0
   12.7845  -11.3134    0.0000 C   0  0  0  0  0  0  0  0  0  0  0  0
   12.0772  -11.7244    0.0000 C   0  0  0  0  0  0  0  0  0  0  0  0
   12.0824  -12.5458    0.0000 C   0  0  0  0  0  0  0  0  0  0  0  0
   12.7912  -12.9483    0.0000 C   0  0  0  0  0  0  0  0  0  0  0  0
  5  1  2  0
  1  2  1  0
  2  3  2  0
  3  4  1  0
  4  6  2  0
  5  6  1  0
  6  7  1  0
  7  8  2  0
  8  9  1  0
  9  5  1  0
  1 10  1  0
  3 11  1  0
  4 12  1  0
 12 13  1  0
 13 14  1  0
 13 15  1  0
 14 16  1  0
 15 17  1  0
 16 18  1  0
 17 18  1  0
 18 19  1  0
 20 21  2  0
 21 22  1  0
 22 23  2  0
 23 24  1  0
 24 25  2  0
 25 20  1  0
 14 20  1  0
M  END
>  <molecule_name>  (20) 
None

>  <target_name>  (20) 
Complement factor B

>  <organism>  (20) 
Homo sapiens

>  <chembl_id>  (20) 
CHEMBL4646654

>  <sim>  (20) 
0.5217391304347826

>  <activity_info>  (20) 
IC50: 4.85

>  <pACT>  (20) 
4.85

$$$$
WHSFJJAVNLAHGJ-UHFFFAOYSA-N
     RDKit          2D

 26 29  0  0  0  0  0  0  0  0999 V2000
   32.9350  -16.9408    0.0000 C   0  0  0  0  0  0  0  0  0  0  0  0
   33.6447  -16.5314    0.0000 C   0  0  0  0  0  0  0  0  0  0  0  0
   33.6418  -15.7087    0.0000 C   0  0  0  0  0  0  0  0  0  0  0  0
   32.9332  -15.3035    0.0000 C   0  0  0  0  0  0  0  0  0  0  0  0
   32.2270  -16.5319    0.0000 C   0  0  0  0  0  0  0  0  0  0  0  0
   32.2237  -15.7154    0.0000 C   0  0  0  0  0  0  0  0  0  0  0  0
   31.4461  -15.4661    0.0000 C   0  0  0  0  0  0  0  0  0  0  0  0
   30.9688  -16.1287    0.0000 C   0  0  0  0  0  0  0  0  0  0  0  0
   31.4514  -16.7872    0.0000 N   0  0  0  0  0  0  0  0  0  0  0  0
   32.9348  -17.7580    0.0000 C   0  0  0  0  0  0  0  0  0  0  0  0
   34.3480  -15.2975    0.0000 C   0  0  0  0  0  0  0  0  0  0  0  0
   32.9306  -14.4863    0.0000 C   0  0  0  0  0  0  0  0  0  0  0  0
   33.6370  -14.0754    0.0000 N   0  0  0  0  0  0  0  0  0  0  0  0
   33.6343  -13.2582    0.0000 C   0  0  0  0  0  0  0  0  0  0  0  0
   34.3460  -14.4817    0.0000 C   0  0  0  0  0  0  0  0  0  0  0  0
   34.3407  -12.8473    0.0000 C   0  0  0  0  0  0  0  0  0  0  0  0
   35.0524  -14.0708    0.0000 C   0  0  0  0  0  0  0  0  0  0  0  0
   35.0497  -13.2536    0.0000 C   0  0  0  0  0  0  0  0  0  0  0  0
   32.9291  -12.8516    0.0000 C   0  0  0  0  0  0  0  0  0  0  0  0
   32.9278  -12.0333    0.0000 C   0  0  0  0  0  0  0  0  0  0  0  0
   32.2197  -11.6271    0.0000 C   0  0  0  0  0  0  0  0  0  0  0  0
   31.5123  -12.0380    0.0000 C   0  0  0  0  0  0  0  0  0  0  0  0
   31.5176  -12.8594    0.0000 C   0  0  0  0  0  0  0  0  0  0  0  0
   32.2263  -13.2620    0.0000 C   0  0  0  0  0  0  0  0  0  0  0  0
   35.7561  -12.8428    0.0000 N   0  0  0  0  0  0  0  0  0  0  0  0
   36.4652  -13.2491    0.0000 C   0  0  0  0  0  0  0  0  0  0  0  0
  5  1  2  0
  1  2  1  0
  2  3  2  0
  3  4  1  0
  4  6  2  0
  5  6  1  0
  6  7  1  0
  7  8  2  0
  8  9  1  0
  9  5  1  0
  1 10  1  0
  3 11  1  0
  4 12  1  0
 12 13  1  0
 13 14  1  0
 13 15  1  0
 14 16  1  0
 15 17  1  0
 16 18  1  0
 17 18  1  0
 19 20  2  0
 20 21  1  0
 21 22  2  0
 22 23  1  0
 23 24  2  0
 24 19  1  0
 14 19  1  0
 18 25  1  0
 25 26  1  0
M  END
>  <molecule_name>  (21) 
None

>  <target_name>  (21) 
Complement factor B

>  <organism>  (21) 
Homo sapiens

>  <chembl_id>  (21) 
CHEMBL4635047

>  <sim>  (21) 
0.5

>  <activity_info>  (21) 
IC50: 4.80

>  <pACT>  (21) 
4.805

$$$$
MBNDMTBONUNJAQ-GJZGRUSLSA-N
     RDKit          2D

 22 24  0  0  0  0  0  0  0  0999 V2000
   33.7770   -6.6351    0.0000 C   0  0  0  0  0  0  0  0  0  0  0  0
   34.4866   -6.2257    0.0000 C   0  0  0  0  0  0  0  0  0  0  0  0
   34.4838   -5.4030    0.0000 C   0  0  0  0  0  0  0  0  0  0  0  0
   33.7752   -4.9978    0.0000 C   0  0  0  0  0  0  0  0  0  0  0  0
   33.0689   -6.2262    0.0000 C   0  0  0  0  0  0  0  0  0  0  0  0
   33.0656   -5.4097    0.0000 C   0  0  0  0  0  0  0  0  0  0  0  0
   32.2880   -5.1604    0.0000 C   0  0  0  0  0  0  0  0  0  0  0  0
   31.8107   -5.8230    0.0000 C   0  0  0  0  0  0  0  0  0  0  0  0
   32.2934   -6.4816    0.0000 N   0  0  0  0  0  0  0  0  0  0  0  0
   33.7768   -7.4523    0.0000 C   0  0  0  0  0  0  0  0  0  0  0  0
   35.1900   -4.9918    0.0000 C   0  0  0  0  0  0  0  0  0  0  0  0
   33.7725   -4.1806    0.0000 C   0  0  0  0  0  0  0  0  0  0  0  0
   34.4789   -3.7697    0.0000 N   0  0  0  0  0  0  0  0  0  0  0  0
   34.4763   -2.9525    0.0000 C   0  0  0  0  0  0  0  0  0  0  0  0
   35.1880   -4.1760    0.0000 C   0  0  0  0  0  0  0  0  0  0  0  0
   35.1827   -2.5416    0.0000 C   0  0  0  0  0  0  0  0  0  0  0  0
   35.8943   -3.7651    0.0000 C   0  0  0  0  0  0  0  0  0  0  0  0
   35.8917   -2.9480    0.0000 C   0  0  0  0  0  0  0  0  0  0  0  0
   33.7711   -2.5459    0.0000 C   0  0  0  0  0  0  0  0  0  0  0  0
   36.5981   -2.5371    0.0000 O   0  0  0  0  0  0  0  0  0  0  0  0
   37.3071   -2.9434    0.0000 C   0  0  0  0  0  0  0  0  0  0  0  0
   33.0636   -2.9550    0.0000 O   0  0  0  0  0  0  0  0  0  0  0  0
  5  1  2  0
  1  2  1  0
  2  3  2  0
  3  4  1  0
  4  6  2  0
  5  6  1  0
  6  7  1  0
  7  8  2  0
  8  9  1  0
  9  5  1  0
  1 10  1  0
  3 11  1  0
  4 12  1  0
 12 13  1  0
 13 14  1  0
 13 15  1  0
 14 16  1  0
 15 17  1  0
 16 18  1  0
 17 18  1  0
 14 19  1  6
 18 20  1  1
 20 21  1  0
 19 22  1  0
M  END
>  <molecule_name>  (22) 
None

>  <target_name>  (22) 
Alpha-2c adrenergic receptor

>  <organism>  (22) 
Homo sapiens

>  <chembl_id>  (22) 
CHEMBL4634827

>  <sim>  (22) 
0.5072463768115942

>  <activity_info>  (22) 
IC50: 4.80

>  <pACT>  (22) 
4.8

$$$$
