RENRQMCACQEWFC-UGKGYDQZSA-N
     RDKit          3D

 31 34  0  0  1  0  0  0  0  0999 V2000
    3.1112    5.1417    1.8089 C   0  0  0  0  0  0  0  0  0  0  0  0
    2.7050    3.7733    1.5320 C   0  0  0  0  0  0  0  0  0  0  0  0
    1.5750    3.2148    2.0509 C   0  0  0  0  0  0  0  0  0  0  0  0
    1.1959    1.9031    1.7632 C   0  0  0  0  0  0  0  0  0  0  0  0
    1.9518    1.1182    0.9375 C   0  0  0  0  0  0  0  0  0  0  0  0
    3.0916    1.6825    0.4120 C   0  0  0  0  0  0  0  0  0  0  0  0
    3.4877    2.9886    0.6884 C   0  0  0  0  0  0  0  0  0  0  0  0
    2.4098    5.8738    2.5379 O   0  0  0  0  0  0  0  0  0  0  0  0
    4.2801    5.6419    1.2664 O   0  0  0  0  0  0  0  0  0  0  0  0
    0.2166   -0.4833    0.4208 N   0  0  0  0  0  0  0  0  0  0  0  0
    1.5962   -0.2782    0.6185 C   0  0  1  0  0  0  0  0  0  0  0  0
    2.4913   -0.8309   -0.4482 C   0  0  0  0  0  0  0  0  0  0  0  0
    2.0491   -2.0893   -1.0713 C   0  0  2  0  0  0  0  0  0  0  0  0
    0.7016   -2.5794   -0.7462 C   0  0  0  0  0  0  0  0  0  0  0  0
   -0.1187   -1.8319    0.2344 C   0  0  0  0  0  0  0  0  0  0  0  0
   -0.5324    0.4840   -0.2545 C   0  0  0  0  0  0  0  0  0  0  0  0
   -4.3000   -0.1557    2.4982 N   0  0  0  0  0  0  0  0  0  0  0  0
   -3.1551   -0.2854    3.1805 C   0  0  0  0  0  0  0  0  0  0  0  0
   -2.0910   -0.1452    2.3140 C   0  0  0  0  0  0  0  0  0  0  0  0
   -2.6173    0.0827    1.0577 C   0  0  0  0  0  0  0  0  0  0  0  0
   -1.9967    0.2709   -0.1913 C   0  0  0  0  0  0  0  0  0  0  0  0
   -2.8488    0.4337   -1.2754 C   0  0  0  0  0  0  0  0  0  0  0  0
   -4.2175    0.4148   -1.1062 C   0  0  0  0  0  0  0  0  0  0  0  0
   -4.8111    0.2328    0.1355 C   0  0  0  0  0  0  0  0  0  0  0  0
   -3.9891    0.0687    1.2034 C   0  0  0  0  0  0  0  0  0  0  0  0
   -6.2997    0.2390    0.2942 C   0  0  0  0  0  0  0  0  0  0  0  0
   -2.3208    0.6120   -2.5247 O   0  0  0  0  0  0  0  0  0  0  0  0
   -3.1740    0.7836   -3.6339 C   0  0  0  0  0  0  0  0  0  0  0  0
    2.9754   -3.1098   -0.7567 O   0  0  0  0  0  0  0  0  0  0  0  0
    3.6722   -3.5595   -1.8657 C   0  0  0  0  0  0  0  0  0  0  0  0
    4.6113   -4.6612   -1.4631 C   0  0  0  0  0  0  0  0  0  0  0  0
  1  2  1  0
  2  3  2  0
  3  4  1  0
  4  5  2  0
  5  6  1  0
  6  7  2  0
  2  7  1  0
  1  8  2  0
  1  9  1  0
 10 11  1  0
 11 12  1  6
 12 13  1  0
 13 14  1  0
 14 15  1  0
 10 15  1  0
 17 18  1  0
 18 19  2  0
 19 20  1  0
 20 21  2  0
 21 22  1  0
 22 23  2  0
 23 24  1  0
 24 25  2  0
 17 25  1  0
 20 25  1  0
 24 26  1  0
 27 28  1  0
 22 27  1  0
 16 21  1  0
 10 16  1  0
 30 31  1  0
 29 30  1  0
 13 29  1  1
 11  5  1  0
M  END
>  <molecule_name>  (1) 
IPTACOPAN

>  <target_name>  (1) 
Complement factor B

>  <organism>  (1) 
Homo sapiens

>  <chembl_id>  (1) 
CHEMBL4594448

>  <activity_info>  (1) 
IC50: 7.07|Kd: 8.10

>  <pACT>  (1) 
7.327500000000001

>  <ID>  (1) 
RENRQMCACQEWFC-UGKGYDQZSA-N

>  <conforer_id>  (1) 
conf49

$$$$
RENRQMCACQEWFC-UGKGYDQZSA-N
     RDKit          3D

 31 34  0  0  1  0  0  0  0  0999 V2000
    3.1112    5.1417    1.8089 C   0  0  0  0  0  0  0  0  0  0  0  0
    2.7050    3.7733    1.5320 C   0  0  0  0  0  0  0  0  0  0  0  0
    1.5750    3.2148    2.0509 C   0  0  0  0  0  0  0  0  0  0  0  0
    1.1959    1.9031    1.7632 C   0  0  0  0  0  0  0  0  0  0  0  0
    1.9518    1.1182    0.9375 C   0  0  0  0  0  0  0  0  0  0  0  0
    3.0916    1.6825    0.4120 C   0  0  0  0  0  0  0  0  0  0  0  0
    3.4877    2.9886    0.6884 C   0  0  0  0  0  0  0  0  0  0  0  0
    2.4098    5.8738    2.5379 O   0  0  0  0  0  0  0  0  0  0  0  0
    4.2801    5.6419    1.2664 O   0  0  0  0  0  0  0  0  0  0  0  0
    0.2166   -0.4833    0.4208 N   0  0  0  0  0  0  0  0  0  0  0  0
    1.5962   -0.2782    0.6185 C   0  0  1  0  0  0  0  0  0  0  0  0
    2.4913   -0.8309   -0.4482 C   0  0  0  0  0  0  0  0  0  0  0  0
    2.0491   -2.0893   -1.0713 C   0  0  2  0  0  0  0  0  0  0  0  0
    0.7016   -2.5794   -0.7462 C   0  0  0  0  0  0  0  0  0  0  0  0
   -0.1187   -1.8319    0.2344 C   0  0  0  0  0  0  0  0  0  0  0  0
   -0.5324    0.4840   -0.2545 C   0  0  0  0  0  0  0  0  0  0  0  0
   -4.3000   -0.1557    2.4982 N   0  0  0  0  0  0  0  0  0  0  0  0
   -3.1551   -0.2854    3.1805 C   0  0  0  0  0  0  0  0  0  0  0  0
   -2.0910   -0.1452    2.3140 C   0  0  0  0  0  0  0  0  0  0  0  0
   -2.6173    0.0827    1.0577 C   0  0  0  0  0  0  0  0  0  0  0  0
   -1.9967    0.2709   -0.1913 C   0  0  0  0  0  0  0  0  0  0  0  0
   -2.8488    0.4337   -1.2754 C   0  0  0  0  0  0  0  0  0  0  0  0
   -4.2175    0.4148   -1.1062 C   0  0  0  0  0  0  0  0  0  0  0  0
   -4.8111    0.2328    0.1355 C   0  0  0  0  0  0  0  0  0  0  0  0
   -3.9891    0.0687    1.2034 C   0  0  0  0  0  0  0  0  0  0  0  0
   -6.2997    0.2390    0.2942 C   0  0  0  0  0  0  0  0  0  0  0  0
   -2.3208    0.6120   -2.5247 O   0  0  0  0  0  0  0  0  0  0  0  0
   -3.1740    0.7836   -3.6339 C   0  0  0  0  0  0  0  0  0  0  0  0
    2.9754   -3.1098   -0.7567 O   0  0  0  0  0  0  0  0  0  0  0  0
    3.6722   -3.5595   -1.8657 C   0  0  0  0  0  0  0  0  0  0  0  0
    4.6113   -4.6612   -1.4631 C   0  0  0  0  0  0  0  0  0  0  0  0
  1  2  1  0
  2  3  2  0
  3  4  1  0
  4  5  2  0
  5  6  1  0
  6  7  2  0
  2  7  1  0
  1  8  2  0
  1  9  1  0
 10 11  1  0
 11 12  1  6
 12 13  1  0
 13 14  1  0
 14 15  1  0
 10 15  1  0
 17 18  1  0
 18 19  2  0
 19 20  1  0
 20 21  2  0
 21 22  1  0
 22 23  2  0
 23 24  1  0
 24 25  2  0
 17 25  1  0
 20 25  1  0
 24 26  1  0
 27 28  1  0
 22 27  1  0
 16 21  1  0
 10 16  1  0
 30 31  1  0
 29 30  1  0
 13 29  1  1
 11  5  1  0
M  END
>  <molecule_name>  (2) 
IPTACOPAN

>  <target_name>  (2) 
Complement factor B

>  <organism>  (2) 
Homo sapiens

>  <chembl_id>  (2) 
CHEMBL4594448

>  <activity_info>  (2) 
IC50: 7.07|Kd: 8.10

>  <pACT>  (2) 
7.327500000000001

>  <ID>  (2) 
RENRQMCACQEWFC-UGKGYDQZSA-N

>  <conforer_id>  (2) 
conf49

$$$$
RENRQMCACQEWFC-UGKGYDQZSA-N
     RDKit          3D

 31 34  0  0  1  0  0  0  0  0999 V2000
    3.1112    5.1417    1.8089 C   0  0  0  0  0  0  0  0  0  0  0  0
    2.7050    3.7733    1.5320 C   0  0  0  0  0  0  0  0  0  0  0  0
    1.5750    3.2148    2.0509 C   0  0  0  0  0  0  0  0  0  0  0  0
    1.1959    1.9031    1.7632 C   0  0  0  0  0  0  0  0  0  0  0  0
    1.9518    1.1182    0.9375 C   0  0  0  0  0  0  0  0  0  0  0  0
    3.0916    1.6825    0.4120 C   0  0  0  0  0  0  0  0  0  0  0  0
    3.4877    2.9886    0.6884 C   0  0  0  0  0  0  0  0  0  0  0  0
    2.4098    5.8738    2.5379 O   0  0  0  0  0  0  0  0  0  0  0  0
    4.2801    5.6419    1.2664 O   0  0  0  0  0  0  0  0  0  0  0  0
    0.2166   -0.4833    0.4208 N   0  0  0  0  0  0  0  0  0  0  0  0
    1.5962   -0.2782    0.6185 C   0  0  1  0  0  0  0  0  0  0  0  0
    2.4913   -0.8309   -0.4482 C   0  0  0  0  0  0  0  0  0  0  0  0
    2.0491   -2.0893   -1.0713 C   0  0  2  0  0  0  0  0  0  0  0  0
    0.7016   -2.5794   -0.7462 C   0  0  0  0  0  0  0  0  0  0  0  0
   -0.1187   -1.8319    0.2344 C   0  0  0  0  0  0  0  0  0  0  0  0
   -0.5324    0.4840   -0.2545 C   0  0  0  0  0  0  0  0  0  0  0  0
   -4.3000   -0.1557    2.4982 N   0  0  0  0  0  0  0  0  0  0  0  0
   -3.1551   -0.2854    3.1805 C   0  0  0  0  0  0  0  0  0  0  0  0
   -2.0910   -0.1452    2.3140 C   0  0  0  0  0  0  0  0  0  0  0  0
   -2.6173    0.0827    1.0577 C   0  0  0  0  0  0  0  0  0  0  0  0
   -1.9967    0.2709   -0.1913 C   0  0  0  0  0  0  0  0  0  0  0  0
   -2.8488    0.4337   -1.2754 C   0  0  0  0  0  0  0  0  0  0  0  0
   -4.2175    0.4148   -1.1062 C   0  0  0  0  0  0  0  0  0  0  0  0
   -4.8111    0.2328    0.1355 C   0  0  0  0  0  0  0  0  0  0  0  0
   -3.9891    0.0687    1.2034 C   0  0  0  0  0  0  0  0  0  0  0  0
   -6.2997    0.2390    0.2942 C   0  0  0  0  0  0  0  0  0  0  0  0
   -2.3208    0.6120   -2.5247 O   0  0  0  0  0  0  0  0  0  0  0  0
   -3.1740    0.7836   -3.6339 C   0  0  0  0  0  0  0  0  0  0  0  0
    2.9754   -3.1098   -0.7567 O   0  0  0  0  0  0  0  0  0  0  0  0
    3.6722   -3.5595   -1.8657 C   0  0  0  0  0  0  0  0  0  0  0  0
    4.6113   -4.6612   -1.4631 C   0  0  0  0  0  0  0  0  0  0  0  0
  1  2  1  0
  2  3  2  0
  3  4  1  0
  4  5  2  0
  5  6  1  0
  6  7  2  0
  2  7  1  0
  1  8  2  0
  1  9  1  0
 10 11  1  0
 11 12  1  6
 12 13  1  0
 13 14  1  0
 14 15  1  0
 10 15  1  0
 17 18  1  0
 18 19  2  0
 19 20  1  0
 20 21  2  0
 21 22  1  0
 22 23  2  0
 23 24  1  0
 24 25  2  0
 17 25  1  0
 20 25  1  0
 24 26  1  0
 27 28  1  0
 22 27  1  0
 16 21  1  0
 10 16  1  0
 30 31  1  0
 29 30  1  0
 13 29  1  1
 11  5  1  0
M  END
>  <molecule_name>  (3) 
IPTACOPAN

>  <target_name>  (3) 
Complement factor B

>  <organism>  (3) 
Homo sapiens

>  <chembl_id>  (3) 
CHEMBL4594448

>  <activity_info>  (3) 
IC50: 7.07|Kd: 8.10

>  <pACT>  (3) 
7.327500000000001

>  <ID>  (3) 
RENRQMCACQEWFC-UGKGYDQZSA-N

>  <conforer_id>  (3) 
conf49

$$$$
RENRQMCACQEWFC-UGKGYDQZSA-N
     RDKit          3D

 31 34  0  0  1  0  0  0  0  0999 V2000
    3.1112    5.1417    1.8089 C   0  0  0  0  0  0  0  0  0  0  0  0
    2.7050    3.7733    1.5320 C   0  0  0  0  0  0  0  0  0  0  0  0
    1.5750    3.2148    2.0509 C   0  0  0  0  0  0  0  0  0  0  0  0
    1.1959    1.9031    1.7632 C   0  0  0  0  0  0  0  0  0  0  0  0
    1.9518    1.1182    0.9375 C   0  0  0  0  0  0  0  0  0  0  0  0
    3.0916    1.6825    0.4120 C   0  0  0  0  0  0  0  0  0  0  0  0
    3.4877    2.9886    0.6884 C   0  0  0  0  0  0  0  0  0  0  0  0
    2.4098    5.8738    2.5379 O   0  0  0  0  0  0  0  0  0  0  0  0
    4.2801    5.6419    1.2664 O   0  0  0  0  0  0  0  0  0  0  0  0
    0.2166   -0.4833    0.4208 N   0  0  0  0  0  0  0  0  0  0  0  0
    1.5962   -0.2782    0.6185 C   0  0  1  0  0  0  0  0  0  0  0  0
    2.4913   -0.8309   -0.4482 C   0  0  0  0  0  0  0  0  0  0  0  0
    2.0491   -2.0893   -1.0713 C   0  0  2  0  0  0  0  0  0  0  0  0
    0.7016   -2.5794   -0.7462 C   0  0  0  0  0  0  0  0  0  0  0  0
   -0.1187   -1.8319    0.2344 C   0  0  0  0  0  0  0  0  0  0  0  0
   -0.5324    0.4840   -0.2545 C   0  0  0  0  0  0  0  0  0  0  0  0
   -4.3000   -0.1557    2.4982 N   0  0  0  0  0  0  0  0  0  0  0  0
   -3.1551   -0.2854    3.1805 C   0  0  0  0  0  0  0  0  0  0  0  0
   -2.0910   -0.1452    2.3140 C   0  0  0  0  0  0  0  0  0  0  0  0
   -2.6173    0.0827    1.0577 C   0  0  0  0  0  0  0  0  0  0  0  0
   -1.9967    0.2709   -0.1913 C   0  0  0  0  0  0  0  0  0  0  0  0
   -2.8488    0.4337   -1.2754 C   0  0  0  0  0  0  0  0  0  0  0  0
   -4.2175    0.4148   -1.1062 C   0  0  0  0  0  0  0  0  0  0  0  0
   -4.8111    0.2328    0.1355 C   0  0  0  0  0  0  0  0  0  0  0  0
   -3.9891    0.0687    1.2034 C   0  0  0  0  0  0  0  0  0  0  0  0
   -6.2997    0.2390    0.2942 C   0  0  0  0  0  0  0  0  0  0  0  0
   -2.3208    0.6120   -2.5247 O   0  0  0  0  0  0  0  0  0  0  0  0
   -3.1740    0.7836   -3.6339 C   0  0  0  0  0  0  0  0  0  0  0  0
    2.9754   -3.1098   -0.7567 O   0  0  0  0  0  0  0  0  0  0  0  0
    3.6722   -3.5595   -1.8657 C   0  0  0  0  0  0  0  0  0  0  0  0
    4.6113   -4.6612   -1.4631 C   0  0  0  0  0  0  0  0  0  0  0  0
  1  2  1  0
  2  3  2  0
  3  4  1  0
  4  5  2  0
  5  6  1  0
  6  7  2  0
  2  7  1  0
  1  8  2  0
  1  9  1  0
 10 11  1  0
 11 12  1  6
 12 13  1  0
 13 14  1  0
 14 15  1  0
 10 15  1  0
 17 18  1  0
 18 19  2  0
 19 20  1  0
 20 21  2  0
 21 22  1  0
 22 23  2  0
 23 24  1  0
 24 25  2  0
 17 25  1  0
 20 25  1  0
 24 26  1  0
 27 28  1  0
 22 27  1  0
 16 21  1  0
 10 16  1  0
 30 31  1  0
 29 30  1  0
 13 29  1  1
 11  5  1  0
M  END
>  <molecule_name>  (4) 
IPTACOPAN

>  <target_name>  (4) 
Complement factor B

>  <organism>  (4) 
Homo sapiens

>  <chembl_id>  (4) 
CHEMBL4594448

>  <activity_info>  (4) 
IC50: 7.07|Kd: 8.10

>  <pACT>  (4) 
7.327500000000001

>  <ID>  (4) 
RENRQMCACQEWFC-UGKGYDQZSA-N

>  <conforer_id>  (4) 
conf49

$$$$
RENRQMCACQEWFC-UGKGYDQZSA-N
     RDKit          3D

 31 34  0  0  1  0  0  0  0  0999 V2000
    3.1112    5.1417    1.8089 C   0  0  0  0  0  0  0  0  0  0  0  0
    2.7050    3.7733    1.5320 C   0  0  0  0  0  0  0  0  0  0  0  0
    1.5750    3.2148    2.0509 C   0  0  0  0  0  0  0  0  0  0  0  0
    1.1959    1.9031    1.7632 C   0  0  0  0  0  0  0  0  0  0  0  0
    1.9518    1.1182    0.9375 C   0  0  0  0  0  0  0  0  0  0  0  0
    3.0916    1.6825    0.4120 C   0  0  0  0  0  0  0  0  0  0  0  0
    3.4877    2.9886    0.6884 C   0  0  0  0  0  0  0  0  0  0  0  0
    2.4098    5.8738    2.5379 O   0  0  0  0  0  0  0  0  0  0  0  0
    4.2801    5.6419    1.2664 O   0  0  0  0  0  0  0  0  0  0  0  0
    0.2166   -0.4833    0.4208 N   0  0  0  0  0  0  0  0  0  0  0  0
    1.5962   -0.2782    0.6185 C   0  0  1  0  0  0  0  0  0  0  0  0
    2.4913   -0.8309   -0.4482 C   0  0  0  0  0  0  0  0  0  0  0  0
    2.0491   -2.0893   -1.0713 C   0  0  2  0  0  0  0  0  0  0  0  0
    0.7016   -2.5794   -0.7462 C   0  0  0  0  0  0  0  0  0  0  0  0
   -0.1187   -1.8319    0.2344 C   0  0  0  0  0  0  0  0  0  0  0  0
   -0.5324    0.4840   -0.2545 C   0  0  0  0  0  0  0  0  0  0  0  0
   -4.3000   -0.1557    2.4982 N   0  0  0  0  0  0  0  0  0  0  0  0
   -3.1551   -0.2854    3.1805 C   0  0  0  0  0  0  0  0  0  0  0  0
   -2.0910   -0.1452    2.3140 C   0  0  0  0  0  0  0  0  0  0  0  0
   -2.6173    0.0827    1.0577 C   0  0  0  0  0  0  0  0  0  0  0  0
   -1.9967    0.2709   -0.1913 C   0  0  0  0  0  0  0  0  0  0  0  0
   -2.8488    0.4337   -1.2754 C   0  0  0  0  0  0  0  0  0  0  0  0
   -4.2175    0.4148   -1.1062 C   0  0  0  0  0  0  0  0  0  0  0  0
   -4.8111    0.2328    0.1355 C   0  0  0  0  0  0  0  0  0  0  0  0
   -3.9891    0.0687    1.2034 C   0  0  0  0  0  0  0  0  0  0  0  0
   -6.2997    0.2390    0.2942 C   0  0  0  0  0  0  0  0  0  0  0  0
   -2.3208    0.6120   -2.5247 O   0  0  0  0  0  0  0  0  0  0  0  0
   -3.1740    0.7836   -3.6339 C   0  0  0  0  0  0  0  0  0  0  0  0
    2.9754   -3.1098   -0.7567 O   0  0  0  0  0  0  0  0  0  0  0  0
    3.6722   -3.5595   -1.8657 C   0  0  0  0  0  0  0  0  0  0  0  0
    4.6113   -4.6612   -1.4631 C   0  0  0  0  0  0  0  0  0  0  0  0
  1  2  1  0
  2  3  2  0
  3  4  1  0
  4  5  2  0
  5  6  1  0
  6  7  2  0
  2  7  1  0
  1  8  2  0
  1  9  1  0
 10 11  1  0
 11 12  1  6
 12 13  1  0
 13 14  1  0
 14 15  1  0
 10 15  1  0
 17 18  1  0
 18 19  2  0
 19 20  1  0
 20 21  2  0
 21 22  1  0
 22 23  2  0
 23 24  1  0
 24 25  2  0
 17 25  1  0
 20 25  1  0
 24 26  1  0
 27 28  1  0
 22 27  1  0
 16 21  1  0
 10 16  1  0
 30 31  1  0
 29 30  1  0
 13 29  1  1
 11  5  1  0
M  END
>  <molecule_name>  (5) 
IPTACOPAN

>  <target_name>  (5) 
Complement factor B

>  <organism>  (5) 
Homo sapiens

>  <chembl_id>  (5) 
CHEMBL4594448

>  <activity_info>  (5) 
IC50: 7.07|Kd: 8.10

>  <pACT>  (5) 
7.327500000000001

>  <ID>  (5) 
RENRQMCACQEWFC-UGKGYDQZSA-N

>  <conforer_id>  (5) 
conf49

$$$$
RENRQMCACQEWFC-UGKGYDQZSA-N
     RDKit          3D

 31 34  0  0  1  0  0  0  0  0999 V2000
    3.1112    5.1417    1.8089 C   0  0  0  0  0  0  0  0  0  0  0  0
    2.7050    3.7733    1.5320 C   0  0  0  0  0  0  0  0  0  0  0  0
    1.5750    3.2148    2.0509 C   0  0  0  0  0  0  0  0  0  0  0  0
    1.1959    1.9031    1.7632 C   0  0  0  0  0  0  0  0  0  0  0  0
    1.9518    1.1182    0.9375 C   0  0  0  0  0  0  0  0  0  0  0  0
    3.0916    1.6825    0.4120 C   0  0  0  0  0  0  0  0  0  0  0  0
    3.4877    2.9886    0.6884 C   0  0  0  0  0  0  0  0  0  0  0  0
    2.4098    5.8738    2.5379 O   0  0  0  0  0  0  0  0  0  0  0  0
    4.2801    5.6419    1.2664 O   0  0  0  0  0  0  0  0  0  0  0  0
    0.2166   -0.4833    0.4208 N   0  0  0  0  0  0  0  0  0  0  0  0
    1.5962   -0.2782    0.6185 C   0  0  1  0  0  0  0  0  0  0  0  0
    2.4913   -0.8309   -0.4482 C   0  0  0  0  0  0  0  0  0  0  0  0
    2.0491   -2.0893   -1.0713 C   0  0  2  0  0  0  0  0  0  0  0  0
    0.7016   -2.5794   -0.7462 C   0  0  0  0  0  0  0  0  0  0  0  0
   -0.1187   -1.8319    0.2344 C   0  0  0  0  0  0  0  0  0  0  0  0
   -0.5324    0.4840   -0.2545 C   0  0  0  0  0  0  0  0  0  0  0  0
   -4.3000   -0.1557    2.4982 N   0  0  0  0  0  0  0  0  0  0  0  0
   -3.1551   -0.2854    3.1805 C   0  0  0  0  0  0  0  0  0  0  0  0
   -2.0910   -0.1452    2.3140 C   0  0  0  0  0  0  0  0  0  0  0  0
   -2.6173    0.0827    1.0577 C   0  0  0  0  0  0  0  0  0  0  0  0
   -1.9967    0.2709   -0.1913 C   0  0  0  0  0  0  0  0  0  0  0  0
   -2.8488    0.4337   -1.2754 C   0  0  0  0  0  0  0  0  0  0  0  0
   -4.2175    0.4148   -1.1062 C   0  0  0  0  0  0  0  0  0  0  0  0
   -4.8111    0.2328    0.1355 C   0  0  0  0  0  0  0  0  0  0  0  0
   -3.9891    0.0687    1.2034 C   0  0  0  0  0  0  0  0  0  0  0  0
   -6.2997    0.2390    0.2942 C   0  0  0  0  0  0  0  0  0  0  0  0
   -2.3208    0.6120   -2.5247 O   0  0  0  0  0  0  0  0  0  0  0  0
   -3.1740    0.7836   -3.6339 C   0  0  0  0  0  0  0  0  0  0  0  0
    2.9754   -3.1098   -0.7567 O   0  0  0  0  0  0  0  0  0  0  0  0
    3.6722   -3.5595   -1.8657 C   0  0  0  0  0  0  0  0  0  0  0  0
    4.6113   -4.6612   -1.4631 C   0  0  0  0  0  0  0  0  0  0  0  0
  1  2  1  0
  2  3  2  0
  3  4  1  0
  4  5  2  0
  5  6  1  0
  6  7  2  0
  2  7  1  0
  1  8  2  0
  1  9  1  0
 10 11  1  0
 11 12  1  6
 12 13  1  0
 13 14  1  0
 14 15  1  0
 10 15  1  0
 17 18  1  0
 18 19  2  0
 19 20  1  0
 20 21  2  0
 21 22  1  0
 22 23  2  0
 23 24  1  0
 24 25  2  0
 17 25  1  0
 20 25  1  0
 24 26  1  0
 27 28  1  0
 22 27  1  0
 16 21  1  0
 10 16  1  0
 30 31  1  0
 29 30  1  0
 13 29  1  1
 11  5  1  0
M  END
>  <molecule_name>  (6) 
IPTACOPAN

>  <target_name>  (6) 
Complement factor B

>  <organism>  (6) 
Homo sapiens

>  <chembl_id>  (6) 
CHEMBL4594448

>  <activity_info>  (6) 
IC50: 7.07|Kd: 8.10

>  <pACT>  (6) 
7.327500000000001

>  <ID>  (6) 
RENRQMCACQEWFC-UGKGYDQZSA-N

>  <conforer_id>  (6) 
conf49

$$$$
RENRQMCACQEWFC-UGKGYDQZSA-N
     RDKit          3D

 31 34  0  0  1  0  0  0  0  0999 V2000
    3.1112    5.1417    1.8089 C   0  0  0  0  0  0  0  0  0  0  0  0
    2.7050    3.7733    1.5320 C   0  0  0  0  0  0  0  0  0  0  0  0
    1.5750    3.2148    2.0509 C   0  0  0  0  0  0  0  0  0  0  0  0
    1.1959    1.9031    1.7632 C   0  0  0  0  0  0  0  0  0  0  0  0
    1.9518    1.1182    0.9375 C   0  0  0  0  0  0  0  0  0  0  0  0
    3.0916    1.6825    0.4120 C   0  0  0  0  0  0  0  0  0  0  0  0
    3.4877    2.9886    0.6884 C   0  0  0  0  0  0  0  0  0  0  0  0
    2.4098    5.8738    2.5379 O   0  0  0  0  0  0  0  0  0  0  0  0
    4.2801    5.6419    1.2664 O   0  0  0  0  0  0  0  0  0  0  0  0
    0.2166   -0.4833    0.4208 N   0  0  0  0  0  0  0  0  0  0  0  0
    1.5962   -0.2782    0.6185 C   0  0  1  0  0  0  0  0  0  0  0  0
    2.4913   -0.8309   -0.4482 C   0  0  0  0  0  0  0  0  0  0  0  0
    2.0491   -2.0893   -1.0713 C   0  0  2  0  0  0  0  0  0  0  0  0
    0.7016   -2.5794   -0.7462 C   0  0  0  0  0  0  0  0  0  0  0  0
   -0.1187   -1.8319    0.2344 C   0  0  0  0  0  0  0  0  0  0  0  0
   -0.5324    0.4840   -0.2545 C   0  0  0  0  0  0  0  0  0  0  0  0
   -4.3000   -0.1557    2.4982 N   0  0  0  0  0  0  0  0  0  0  0  0
   -3.1551   -0.2854    3.1805 C   0  0  0  0  0  0  0  0  0  0  0  0
   -2.0910   -0.1452    2.3140 C   0  0  0  0  0  0  0  0  0  0  0  0
   -2.6173    0.0827    1.0577 C   0  0  0  0  0  0  0  0  0  0  0  0
   -1.9967    0.2709   -0.1913 C   0  0  0  0  0  0  0  0  0  0  0  0
   -2.8488    0.4337   -1.2754 C   0  0  0  0  0  0  0  0  0  0  0  0
   -4.2175    0.4148   -1.1062 C   0  0  0  0  0  0  0  0  0  0  0  0
   -4.8111    0.2328    0.1355 C   0  0  0  0  0  0  0  0  0  0  0  0
   -3.9891    0.0687    1.2034 C   0  0  0  0  0  0  0  0  0  0  0  0
   -6.2997    0.2390    0.2942 C   0  0  0  0  0  0  0  0  0  0  0  0
   -2.3208    0.6120   -2.5247 O   0  0  0  0  0  0  0  0  0  0  0  0
   -3.1740    0.7836   -3.6339 C   0  0  0  0  0  0  0  0  0  0  0  0
    2.9754   -3.1098   -0.7567 O   0  0  0  0  0  0  0  0  0  0  0  0
    3.6722   -3.5595   -1.8657 C   0  0  0  0  0  0  0  0  0  0  0  0
    4.6113   -4.6612   -1.4631 C   0  0  0  0  0  0  0  0  0  0  0  0
  1  2  1  0
  2  3  2  0
  3  4  1  0
  4  5  2  0
  5  6  1  0
  6  7  2  0
  2  7  1  0
  1  8  2  0
  1  9  1  0
 10 11  1  0
 11 12  1  6
 12 13  1  0
 13 14  1  0
 14 15  1  0
 10 15  1  0
 17 18  1  0
 18 19  2  0
 19 20  1  0
 20 21  2  0
 21 22  1  0
 22 23  2  0
 23 24  1  0
 24 25  2  0
 17 25  1  0
 20 25  1  0
 24 26  1  0
 27 28  1  0
 22 27  1  0
 16 21  1  0
 10 16  1  0
 30 31  1  0
 29 30  1  0
 13 29  1  1
 11  5  1  0
M  END
>  <molecule_name>  (7) 
IPTACOPAN

>  <target_name>  (7) 
Complement factor B

>  <organism>  (7) 
Homo sapiens

>  <chembl_id>  (7) 
CHEMBL4594448

>  <activity_info>  (7) 
IC50: 7.07|Kd: 8.10

>  <pACT>  (7) 
7.327500000000001

>  <ID>  (7) 
RENRQMCACQEWFC-UGKGYDQZSA-N

>  <conforer_id>  (7) 
conf49

$$$$
RENRQMCACQEWFC-UGKGYDQZSA-N
     RDKit          3D

 31 34  0  0  1  0  0  0  0  0999 V2000
    3.1112    5.1417    1.8089 C   0  0  0  0  0  0  0  0  0  0  0  0
    2.7050    3.7733    1.5320 C   0  0  0  0  0  0  0  0  0  0  0  0
    1.5750    3.2148    2.0509 C   0  0  0  0  0  0  0  0  0  0  0  0
    1.1959    1.9031    1.7632 C   0  0  0  0  0  0  0  0  0  0  0  0
    1.9518    1.1182    0.9375 C   0  0  0  0  0  0  0  0  0  0  0  0
    3.0916    1.6825    0.4120 C   0  0  0  0  0  0  0  0  0  0  0  0
    3.4877    2.9886    0.6884 C   0  0  0  0  0  0  0  0  0  0  0  0
    2.4098    5.8738    2.5379 O   0  0  0  0  0  0  0  0  0  0  0  0
    4.2801    5.6419    1.2664 O   0  0  0  0  0  0  0  0  0  0  0  0
    0.2166   -0.4833    0.4208 N   0  0  0  0  0  0  0  0  0  0  0  0
    1.5962   -0.2782    0.6185 C   0  0  1  0  0  0  0  0  0  0  0  0
    2.4913   -0.8309   -0.4482 C   0  0  0  0  0  0  0  0  0  0  0  0
    2.0491   -2.0893   -1.0713 C   0  0  2  0  0  0  0  0  0  0  0  0
    0.7016   -2.5794   -0.7462 C   0  0  0  0  0  0  0  0  0  0  0  0
   -0.1187   -1.8319    0.2344 C   0  0  0  0  0  0  0  0  0  0  0  0
   -0.5324    0.4840   -0.2545 C   0  0  0  0  0  0  0  0  0  0  0  0
   -4.3000   -0.1557    2.4982 N   0  0  0  0  0  0  0  0  0  0  0  0
   -3.1551   -0.2854    3.1805 C   0  0  0  0  0  0  0  0  0  0  0  0
   -2.0910   -0.1452    2.3140 C   0  0  0  0  0  0  0  0  0  0  0  0
   -2.6173    0.0827    1.0577 C   0  0  0  0  0  0  0  0  0  0  0  0
   -1.9967    0.2709   -0.1913 C   0  0  0  0  0  0  0  0  0  0  0  0
   -2.8488    0.4337   -1.2754 C   0  0  0  0  0  0  0  0  0  0  0  0
   -4.2175    0.4148   -1.1062 C   0  0  0  0  0  0  0  0  0  0  0  0
   -4.8111    0.2328    0.1355 C   0  0  0  0  0  0  0  0  0  0  0  0
   -3.9891    0.0687    1.2034 C   0  0  0  0  0  0  0  0  0  0  0  0
   -6.2997    0.2390    0.2942 C   0  0  0  0  0  0  0  0  0  0  0  0
   -2.3208    0.6120   -2.5247 O   0  0  0  0  0  0  0  0  0  0  0  0
   -3.1740    0.7836   -3.6339 C   0  0  0  0  0  0  0  0  0  0  0  0
    2.9754   -3.1098   -0.7567 O   0  0  0  0  0  0  0  0  0  0  0  0
    3.6722   -3.5595   -1.8657 C   0  0  0  0  0  0  0  0  0  0  0  0
    4.6113   -4.6612   -1.4631 C   0  0  0  0  0  0  0  0  0  0  0  0
  1  2  1  0
  2  3  2  0
  3  4  1  0
  4  5  2  0
  5  6  1  0
  6  7  2  0
  2  7  1  0
  1  8  2  0
  1  9  1  0
 10 11  1  0
 11 12  1  6
 12 13  1  0
 13 14  1  0
 14 15  1  0
 10 15  1  0
 17 18  1  0
 18 19  2  0
 19 20  1  0
 20 21  2  0
 21 22  1  0
 22 23  2  0
 23 24  1  0
 24 25  2  0
 17 25  1  0
 20 25  1  0
 24 26  1  0
 27 28  1  0
 22 27  1  0
 16 21  1  0
 10 16  1  0
 30 31  1  0
 29 30  1  0
 13 29  1  1
 11  5  1  0
M  END
>  <molecule_name>  (8) 
IPTACOPAN

>  <target_name>  (8) 
Complement factor B

>  <organism>  (8) 
Homo sapiens

>  <chembl_id>  (8) 
CHEMBL4594448

>  <activity_info>  (8) 
IC50: 7.07|Kd: 8.10

>  <pACT>  (8) 
7.327500000000001

>  <ID>  (8) 
RENRQMCACQEWFC-UGKGYDQZSA-N

>  <conforer_id>  (8) 
conf49

$$$$
RENRQMCACQEWFC-UGKGYDQZSA-N
     RDKit          3D

 31 34  0  0  1  0  0  0  0  0999 V2000
    3.1112    5.1417    1.8089 C   0  0  0  0  0  0  0  0  0  0  0  0
    2.7050    3.7733    1.5320 C   0  0  0  0  0  0  0  0  0  0  0  0
    1.5750    3.2148    2.0509 C   0  0  0  0  0  0  0  0  0  0  0  0
    1.1959    1.9031    1.7632 C   0  0  0  0  0  0  0  0  0  0  0  0
    1.9518    1.1182    0.9375 C   0  0  0  0  0  0  0  0  0  0  0  0
    3.0916    1.6825    0.4120 C   0  0  0  0  0  0  0  0  0  0  0  0
    3.4877    2.9886    0.6884 C   0  0  0  0  0  0  0  0  0  0  0  0
    2.4098    5.8738    2.5379 O   0  0  0  0  0  0  0  0  0  0  0  0
    4.2801    5.6419    1.2664 O   0  0  0  0  0  0  0  0  0  0  0  0
    0.2166   -0.4833    0.4208 N   0  0  0  0  0  0  0  0  0  0  0  0
    1.5962   -0.2782    0.6185 C   0  0  1  0  0  0  0  0  0  0  0  0
    2.4913   -0.8309   -0.4482 C   0  0  0  0  0  0  0  0  0  0  0  0
    2.0491   -2.0893   -1.0713 C   0  0  2  0  0  0  0  0  0  0  0  0
    0.7016   -2.5794   -0.7462 C   0  0  0  0  0  0  0  0  0  0  0  0
   -0.1187   -1.8319    0.2344 C   0  0  0  0  0  0  0  0  0  0  0  0
   -0.5324    0.4840   -0.2545 C   0  0  0  0  0  0  0  0  0  0  0  0
   -4.3000   -0.1557    2.4982 N   0  0  0  0  0  0  0  0  0  0  0  0
   -3.1551   -0.2854    3.1805 C   0  0  0  0  0  0  0  0  0  0  0  0
   -2.0910   -0.1452    2.3140 C   0  0  0  0  0  0  0  0  0  0  0  0
   -2.6173    0.0827    1.0577 C   0  0  0  0  0  0  0  0  0  0  0  0
   -1.9967    0.2709   -0.1913 C   0  0  0  0  0  0  0  0  0  0  0  0
   -2.8488    0.4337   -1.2754 C   0  0  0  0  0  0  0  0  0  0  0  0
   -4.2175    0.4148   -1.1062 C   0  0  0  0  0  0  0  0  0  0  0  0
   -4.8111    0.2328    0.1355 C   0  0  0  0  0  0  0  0  0  0  0  0
   -3.9891    0.0687    1.2034 C   0  0  0  0  0  0  0  0  0  0  0  0
   -6.2997    0.2390    0.2942 C   0  0  0  0  0  0  0  0  0  0  0  0
   -2.3208    0.6120   -2.5247 O   0  0  0  0  0  0  0  0  0  0  0  0
   -3.1740    0.7836   -3.6339 C   0  0  0  0  0  0  0  0  0  0  0  0
    2.9754   -3.1098   -0.7567 O   0  0  0  0  0  0  0  0  0  0  0  0
    3.6722   -3.5595   -1.8657 C   0  0  0  0  0  0  0  0  0  0  0  0
    4.6113   -4.6612   -1.4631 C   0  0  0  0  0  0  0  0  0  0  0  0
  1  2  1  0
  2  3  2  0
  3  4  1  0
  4  5  2  0
  5  6  1  0
  6  7  2  0
  2  7  1  0
  1  8  2  0
  1  9  1  0
 10 11  1  0
 11 12  1  6
 12 13  1  0
 13 14  1  0
 14 15  1  0
 10 15  1  0
 17 18  1  0
 18 19  2  0
 19 20  1  0
 20 21  2  0
 21 22  1  0
 22 23  2  0
 23 24  1  0
 24 25  2  0
 17 25  1  0
 20 25  1  0
 24 26  1  0
 27 28  1  0
 22 27  1  0
 16 21  1  0
 10 16  1  0
 30 31  1  0
 29 30  1  0
 13 29  1  1
 11  5  1  0
M  END
>  <molecule_name>  (9) 
IPTACOPAN

>  <target_name>  (9) 
Complement factor B

>  <organism>  (9) 
Homo sapiens

>  <chembl_id>  (9) 
CHEMBL4594448

>  <activity_info>  (9) 
IC50: 7.07|Kd: 8.10

>  <pACT>  (9) 
7.327500000000001

>  <ID>  (9) 
RENRQMCACQEWFC-UGKGYDQZSA-N

>  <conforer_id>  (9) 
conf49

$$$$
RENRQMCACQEWFC-UGKGYDQZSA-N
     RDKit          3D

 31 34  0  0  1  0  0  0  0  0999 V2000
    3.1112    5.1417    1.8089 C   0  0  0  0  0  0  0  0  0  0  0  0
    2.7050    3.7733    1.5320 C   0  0  0  0  0  0  0  0  0  0  0  0
    1.5750    3.2148    2.0509 C   0  0  0  0  0  0  0  0  0  0  0  0
    1.1959    1.9031    1.7632 C   0  0  0  0  0  0  0  0  0  0  0  0
    1.9518    1.1182    0.9375 C   0  0  0  0  0  0  0  0  0  0  0  0
    3.0916    1.6825    0.4120 C   0  0  0  0  0  0  0  0  0  0  0  0
    3.4877    2.9886    0.6884 C   0  0  0  0  0  0  0  0  0  0  0  0
    2.4098    5.8738    2.5379 O   0  0  0  0  0  0  0  0  0  0  0  0
    4.2801    5.6419    1.2664 O   0  0  0  0  0  0  0  0  0  0  0  0
    0.2166   -0.4833    0.4208 N   0  0  0  0  0  0  0  0  0  0  0  0
    1.5962   -0.2782    0.6185 C   0  0  1  0  0  0  0  0  0  0  0  0
    2.4913   -0.8309   -0.4482 C   0  0  0  0  0  0  0  0  0  0  0  0
    2.0491   -2.0893   -1.0713 C   0  0  2  0  0  0  0  0  0  0  0  0
    0.7016   -2.5794   -0.7462 C   0  0  0  0  0  0  0  0  0  0  0  0
   -0.1187   -1.8319    0.2344 C   0  0  0  0  0  0  0  0  0  0  0  0
   -0.5324    0.4840   -0.2545 C   0  0  0  0  0  0  0  0  0  0  0  0
   -4.3000   -0.1557    2.4982 N   0  0  0  0  0  0  0  0  0  0  0  0
   -3.1551   -0.2854    3.1805 C   0  0  0  0  0  0  0  0  0  0  0  0
   -2.0910   -0.1452    2.3140 C   0  0  0  0  0  0  0  0  0  0  0  0
   -2.6173    0.0827    1.0577 C   0  0  0  0  0  0  0  0  0  0  0  0
   -1.9967    0.2709   -0.1913 C   0  0  0  0  0  0  0  0  0  0  0  0
   -2.8488    0.4337   -1.2754 C   0  0  0  0  0  0  0  0  0  0  0  0
   -4.2175    0.4148   -1.1062 C   0  0  0  0  0  0  0  0  0  0  0  0
   -4.8111    0.2328    0.1355 C   0  0  0  0  0  0  0  0  0  0  0  0
   -3.9891    0.0687    1.2034 C   0  0  0  0  0  0  0  0  0  0  0  0
   -6.2997    0.2390    0.2942 C   0  0  0  0  0  0  0  0  0  0  0  0
   -2.3208    0.6120   -2.5247 O   0  0  0  0  0  0  0  0  0  0  0  0
   -3.1740    0.7836   -3.6339 C   0  0  0  0  0  0  0  0  0  0  0  0
    2.9754   -3.1098   -0.7567 O   0  0  0  0  0  0  0  0  0  0  0  0
    3.6722   -3.5595   -1.8657 C   0  0  0  0  0  0  0  0  0  0  0  0
    4.6113   -4.6612   -1.4631 C   0  0  0  0  0  0  0  0  0  0  0  0
  1  2  1  0
  2  3  2  0
  3  4  1  0
  4  5  2  0
  5  6  1  0
  6  7  2  0
  2  7  1  0
  1  8  2  0
  1  9  1  0
 10 11  1  0
 11 12  1  6
 12 13  1  0
 13 14  1  0
 14 15  1  0
 10 15  1  0
 17 18  1  0
 18 19  2  0
 19 20  1  0
 20 21  2  0
 21 22  1  0
 22 23  2  0
 23 24  1  0
 24 25  2  0
 17 25  1  0
 20 25  1  0
 24 26  1  0
 27 28  1  0
 22 27  1  0
 16 21  1  0
 10 16  1  0
 30 31  1  0
 29 30  1  0
 13 29  1  1
 11  5  1  0
M  END
>  <molecule_name>  (10) 
IPTACOPAN

>  <target_name>  (10) 
Complement factor B

>  <organism>  (10) 
Homo sapiens

>  <chembl_id>  (10) 
CHEMBL4594448

>  <activity_info>  (10) 
IC50: 7.07|Kd: 8.10

>  <pACT>  (10) 
7.327500000000001

>  <ID>  (10) 
RENRQMCACQEWFC-UGKGYDQZSA-N

>  <conforer_id>  (10) 
conf49

$$$$
RENRQMCACQEWFC-UGKGYDQZSA-N
     RDKit          3D

 31 34  0  0  1  0  0  0  0  0999 V2000
    3.1112    5.1417    1.8089 C   0  0  0  0  0  0  0  0  0  0  0  0
    2.7050    3.7733    1.5320 C   0  0  0  0  0  0  0  0  0  0  0  0
    1.5750    3.2148    2.0509 C   0  0  0  0  0  0  0  0  0  0  0  0
    1.1959    1.9031    1.7632 C   0  0  0  0  0  0  0  0  0  0  0  0
    1.9518    1.1182    0.9375 C   0  0  0  0  0  0  0  0  0  0  0  0
    3.0916    1.6825    0.4120 C   0  0  0  0  0  0  0  0  0  0  0  0
    3.4877    2.9886    0.6884 C   0  0  0  0  0  0  0  0  0  0  0  0
    2.4098    5.8738    2.5379 O   0  0  0  0  0  0  0  0  0  0  0  0
    4.2801    5.6419    1.2664 O   0  0  0  0  0  0  0  0  0  0  0  0
    0.2166   -0.4833    0.4208 N   0  0  0  0  0  0  0  0  0  0  0  0
    1.5962   -0.2782    0.6185 C   0  0  1  0  0  0  0  0  0  0  0  0
    2.4913   -0.8309   -0.4482 C   0  0  0  0  0  0  0  0  0  0  0  0
    2.0491   -2.0893   -1.0713 C   0  0  2  0  0  0  0  0  0  0  0  0
    0.7016   -2.5794   -0.7462 C   0  0  0  0  0  0  0  0  0  0  0  0
   -0.1187   -1.8319    0.2344 C   0  0  0  0  0  0  0  0  0  0  0  0
   -0.5324    0.4840   -0.2545 C   0  0  0  0  0  0  0  0  0  0  0  0
   -4.3000   -0.1557    2.4982 N   0  0  0  0  0  0  0  0  0  0  0  0
   -3.1551   -0.2854    3.1805 C   0  0  0  0  0  0  0  0  0  0  0  0
   -2.0910   -0.1452    2.3140 C   0  0  0  0  0  0  0  0  0  0  0  0
   -2.6173    0.0827    1.0577 C   0  0  0  0  0  0  0  0  0  0  0  0
   -1.9967    0.2709   -0.1913 C   0  0  0  0  0  0  0  0  0  0  0  0
   -2.8488    0.4337   -1.2754 C   0  0  0  0  0  0  0  0  0  0  0  0
   -4.2175    0.4148   -1.1062 C   0  0  0  0  0  0  0  0  0  0  0  0
   -4.8111    0.2328    0.1355 C   0  0  0  0  0  0  0  0  0  0  0  0
   -3.9891    0.0687    1.2034 C   0  0  0  0  0  0  0  0  0  0  0  0
   -6.2997    0.2390    0.2942 C   0  0  0  0  0  0  0  0  0  0  0  0
   -2.3208    0.6120   -2.5247 O   0  0  0  0  0  0  0  0  0  0  0  0
   -3.1740    0.7836   -3.6339 C   0  0  0  0  0  0  0  0  0  0  0  0
    2.9754   -3.1098   -0.7567 O   0  0  0  0  0  0  0  0  0  0  0  0
    3.6722   -3.5595   -1.8657 C   0  0  0  0  0  0  0  0  0  0  0  0
    4.6113   -4.6612   -1.4631 C   0  0  0  0  0  0  0  0  0  0  0  0
  1  2  1  0
  2  3  2  0
  3  4  1  0
  4  5  2  0
  5  6  1  0
  6  7  2  0
  2  7  1  0
  1  8  2  0
  1  9  1  0
 10 11  1  0
 11 12  1  6
 12 13  1  0
 13 14  1  0
 14 15  1  0
 10 15  1  0
 17 18  1  0
 18 19  2  0
 19 20  1  0
 20 21  2  0
 21 22  1  0
 22 23  2  0
 23 24  1  0
 24 25  2  0
 17 25  1  0
 20 25  1  0
 24 26  1  0
 27 28  1  0
 22 27  1  0
 16 21  1  0
 10 16  1  0
 30 31  1  0
 29 30  1  0
 13 29  1  1
 11  5  1  0
M  END
>  <molecule_name>  (11) 
IPTACOPAN

>  <target_name>  (11) 
Complement factor B

>  <organism>  (11) 
Homo sapiens

>  <chembl_id>  (11) 
CHEMBL4594448

>  <activity_info>  (11) 
IC50: 7.07|Kd: 8.10

>  <pACT>  (11) 
7.327500000000001

>  <ID>  (11) 
RENRQMCACQEWFC-UGKGYDQZSA-N

>  <conforer_id>  (11) 
conf49

$$$$
RENRQMCACQEWFC-UGKGYDQZSA-N
     RDKit          3D

 31 34  0  0  1  0  0  0  0  0999 V2000
    3.1112    5.1417    1.8089 C   0  0  0  0  0  0  0  0  0  0  0  0
    2.7050    3.7733    1.5320 C   0  0  0  0  0  0  0  0  0  0  0  0
    1.5750    3.2148    2.0509 C   0  0  0  0  0  0  0  0  0  0  0  0
    1.1959    1.9031    1.7632 C   0  0  0  0  0  0  0  0  0  0  0  0
    1.9518    1.1182    0.9375 C   0  0  0  0  0  0  0  0  0  0  0  0
    3.0916    1.6825    0.4120 C   0  0  0  0  0  0  0  0  0  0  0  0
    3.4877    2.9886    0.6884 C   0  0  0  0  0  0  0  0  0  0  0  0
    2.4098    5.8738    2.5379 O   0  0  0  0  0  0  0  0  0  0  0  0
    4.2801    5.6419    1.2664 O   0  0  0  0  0  0  0  0  0  0  0  0
    0.2166   -0.4833    0.4208 N   0  0  0  0  0  0  0  0  0  0  0  0
    1.5962   -0.2782    0.6185 C   0  0  1  0  0  0  0  0  0  0  0  0
    2.4913   -0.8309   -0.4482 C   0  0  0  0  0  0  0  0  0  0  0  0
    2.0491   -2.0893   -1.0713 C   0  0  2  0  0  0  0  0  0  0  0  0
    0.7016   -2.5794   -0.7462 C   0  0  0  0  0  0  0  0  0  0  0  0
   -0.1187   -1.8319    0.2344 C   0  0  0  0  0  0  0  0  0  0  0  0
   -0.5324    0.4840   -0.2545 C   0  0  0  0  0  0  0  0  0  0  0  0
   -4.3000   -0.1557    2.4982 N   0  0  0  0  0  0  0  0  0  0  0  0
   -3.1551   -0.2854    3.1805 C   0  0  0  0  0  0  0  0  0  0  0  0
   -2.0910   -0.1452    2.3140 C   0  0  0  0  0  0  0  0  0  0  0  0
   -2.6173    0.0827    1.0577 C   0  0  0  0  0  0  0  0  0  0  0  0
   -1.9967    0.2709   -0.1913 C   0  0  0  0  0  0  0  0  0  0  0  0
   -2.8488    0.4337   -1.2754 C   0  0  0  0  0  0  0  0  0  0  0  0
   -4.2175    0.4148   -1.1062 C   0  0  0  0  0  0  0  0  0  0  0  0
   -4.8111    0.2328    0.1355 C   0  0  0  0  0  0  0  0  0  0  0  0
   -3.9891    0.0687    1.2034 C   0  0  0  0  0  0  0  0  0  0  0  0
   -6.2997    0.2390    0.2942 C   0  0  0  0  0  0  0  0  0  0  0  0
   -2.3208    0.6120   -2.5247 O   0  0  0  0  0  0  0  0  0  0  0  0
   -3.1740    0.7836   -3.6339 C   0  0  0  0  0  0  0  0  0  0  0  0
    2.9754   -3.1098   -0.7567 O   0  0  0  0  0  0  0  0  0  0  0  0
    3.6722   -3.5595   -1.8657 C   0  0  0  0  0  0  0  0  0  0  0  0
    4.6113   -4.6612   -1.4631 C   0  0  0  0  0  0  0  0  0  0  0  0
  1  2  1  0
  2  3  2  0
  3  4  1  0
  4  5  2  0
  5  6  1  0
  6  7  2  0
  2  7  1  0
  1  8  2  0
  1  9  1  0
 10 11  1  0
 11 12  1  6
 12 13  1  0
 13 14  1  0
 14 15  1  0
 10 15  1  0
 17 18  1  0
 18 19  2  0
 19 20  1  0
 20 21  2  0
 21 22  1  0
 22 23  2  0
 23 24  1  0
 24 25  2  0
 17 25  1  0
 20 25  1  0
 24 26  1  0
 27 28  1  0
 22 27  1  0
 16 21  1  0
 10 16  1  0
 30 31  1  0
 29 30  1  0
 13 29  1  1
 11  5  1  0
M  END
>  <molecule_name>  (12) 
IPTACOPAN

>  <target_name>  (12) 
Complement factor B

>  <organism>  (12) 
Homo sapiens

>  <chembl_id>  (12) 
CHEMBL4594448

>  <activity_info>  (12) 
IC50: 7.07|Kd: 8.10

>  <pACT>  (12) 
7.327500000000001

>  <ID>  (12) 
RENRQMCACQEWFC-UGKGYDQZSA-N

>  <conforer_id>  (12) 
conf49

$$$$
RENRQMCACQEWFC-UGKGYDQZSA-N
     RDKit          3D

 31 34  0  0  1  0  0  0  0  0999 V2000
    3.1112    5.1417    1.8089 C   0  0  0  0  0  0  0  0  0  0  0  0
    2.7050    3.7733    1.5320 C   0  0  0  0  0  0  0  0  0  0  0  0
    1.5750    3.2148    2.0509 C   0  0  0  0  0  0  0  0  0  0  0  0
    1.1959    1.9031    1.7632 C   0  0  0  0  0  0  0  0  0  0  0  0
    1.9518    1.1182    0.9375 C   0  0  0  0  0  0  0  0  0  0  0  0
    3.0916    1.6825    0.4120 C   0  0  0  0  0  0  0  0  0  0  0  0
    3.4877    2.9886    0.6884 C   0  0  0  0  0  0  0  0  0  0  0  0
    2.4098    5.8738    2.5379 O   0  0  0  0  0  0  0  0  0  0  0  0
    4.2801    5.6419    1.2664 O   0  0  0  0  0  0  0  0  0  0  0  0
    0.2166   -0.4833    0.4208 N   0  0  0  0  0  0  0  0  0  0  0  0
    1.5962   -0.2782    0.6185 C   0  0  1  0  0  0  0  0  0  0  0  0
    2.4913   -0.8309   -0.4482 C   0  0  0  0  0  0  0  0  0  0  0  0
    2.0491   -2.0893   -1.0713 C   0  0  2  0  0  0  0  0  0  0  0  0
    0.7016   -2.5794   -0.7462 C   0  0  0  0  0  0  0  0  0  0  0  0
   -0.1187   -1.8319    0.2344 C   0  0  0  0  0  0  0  0  0  0  0  0
   -0.5324    0.4840   -0.2545 C   0  0  0  0  0  0  0  0  0  0  0  0
   -4.3000   -0.1557    2.4982 N   0  0  0  0  0  0  0  0  0  0  0  0
   -3.1551   -0.2854    3.1805 C   0  0  0  0  0  0  0  0  0  0  0  0
   -2.0910   -0.1452    2.3140 C   0  0  0  0  0  0  0  0  0  0  0  0
   -2.6173    0.0827    1.0577 C   0  0  0  0  0  0  0  0  0  0  0  0
   -1.9967    0.2709   -0.1913 C   0  0  0  0  0  0  0  0  0  0  0  0
   -2.8488    0.4337   -1.2754 C   0  0  0  0  0  0  0  0  0  0  0  0
   -4.2175    0.4148   -1.1062 C   0  0  0  0  0  0  0  0  0  0  0  0
   -4.8111    0.2328    0.1355 C   0  0  0  0  0  0  0  0  0  0  0  0
   -3.9891    0.0687    1.2034 C   0  0  0  0  0  0  0  0  0  0  0  0
   -6.2997    0.2390    0.2942 C   0  0  0  0  0  0  0  0  0  0  0  0
   -2.3208    0.6120   -2.5247 O   0  0  0  0  0  0  0  0  0  0  0  0
   -3.1740    0.7836   -3.6339 C   0  0  0  0  0  0  0  0  0  0  0  0
    2.9754   -3.1098   -0.7567 O   0  0  0  0  0  0  0  0  0  0  0  0
    3.6722   -3.5595   -1.8657 C   0  0  0  0  0  0  0  0  0  0  0  0
    4.6113   -4.6612   -1.4631 C   0  0  0  0  0  0  0  0  0  0  0  0
  1  2  1  0
  2  3  2  0
  3  4  1  0
  4  5  2  0
  5  6  1  0
  6  7  2  0
  2  7  1  0
  1  8  2  0
  1  9  1  0
 10 11  1  0
 11 12  1  6
 12 13  1  0
 13 14  1  0
 14 15  1  0
 10 15  1  0
 17 18  1  0
 18 19  2  0
 19 20  1  0
 20 21  2  0
 21 22  1  0
 22 23  2  0
 23 24  1  0
 24 25  2  0
 17 25  1  0
 20 25  1  0
 24 26  1  0
 27 28  1  0
 22 27  1  0
 16 21  1  0
 10 16  1  0
 30 31  1  0
 29 30  1  0
 13 29  1  1
 11  5  1  0
M  END
>  <molecule_name>  (13) 
IPTACOPAN

>  <target_name>  (13) 
Complement factor B

>  <organism>  (13) 
Homo sapiens

>  <chembl_id>  (13) 
CHEMBL4594448

>  <activity_info>  (13) 
IC50: 7.07|Kd: 8.10

>  <pACT>  (13) 
7.327500000000001

>  <ID>  (13) 
RENRQMCACQEWFC-UGKGYDQZSA-N

>  <conforer_id>  (13) 
conf49

$$$$
RENRQMCACQEWFC-UGKGYDQZSA-N
     RDKit          3D

 31 34  0  0  1  0  0  0  0  0999 V2000
    3.1112    5.1417    1.8089 C   0  0  0  0  0  0  0  0  0  0  0  0
    2.7050    3.7733    1.5320 C   0  0  0  0  0  0  0  0  0  0  0  0
    1.5750    3.2148    2.0509 C   0  0  0  0  0  0  0  0  0  0  0  0
    1.1959    1.9031    1.7632 C   0  0  0  0  0  0  0  0  0  0  0  0
    1.9518    1.1182    0.9375 C   0  0  0  0  0  0  0  0  0  0  0  0
    3.0916    1.6825    0.4120 C   0  0  0  0  0  0  0  0  0  0  0  0
    3.4877    2.9886    0.6884 C   0  0  0  0  0  0  0  0  0  0  0  0
    2.4098    5.8738    2.5379 O   0  0  0  0  0  0  0  0  0  0  0  0
    4.2801    5.6419    1.2664 O   0  0  0  0  0  0  0  0  0  0  0  0
    0.2166   -0.4833    0.4208 N   0  0  0  0  0  0  0  0  0  0  0  0
    1.5962   -0.2782    0.6185 C   0  0  1  0  0  0  0  0  0  0  0  0
    2.4913   -0.8309   -0.4482 C   0  0  0  0  0  0  0  0  0  0  0  0
    2.0491   -2.0893   -1.0713 C   0  0  2  0  0  0  0  0  0  0  0  0
    0.7016   -2.5794   -0.7462 C   0  0  0  0  0  0  0  0  0  0  0  0
   -0.1187   -1.8319    0.2344 C   0  0  0  0  0  0  0  0  0  0  0  0
   -0.5324    0.4840   -0.2545 C   0  0  0  0  0  0  0  0  0  0  0  0
   -4.3000   -0.1557    2.4982 N   0  0  0  0  0  0  0  0  0  0  0  0
   -3.1551   -0.2854    3.1805 C   0  0  0  0  0  0  0  0  0  0  0  0
   -2.0910   -0.1452    2.3140 C   0  0  0  0  0  0  0  0  0  0  0  0
   -2.6173    0.0827    1.0577 C   0  0  0  0  0  0  0  0  0  0  0  0
   -1.9967    0.2709   -0.1913 C   0  0  0  0  0  0  0  0  0  0  0  0
   -2.8488    0.4337   -1.2754 C   0  0  0  0  0  0  0  0  0  0  0  0
   -4.2175    0.4148   -1.1062 C   0  0  0  0  0  0  0  0  0  0  0  0
   -4.8111    0.2328    0.1355 C   0  0  0  0  0  0  0  0  0  0  0  0
   -3.9891    0.0687    1.2034 C   0  0  0  0  0  0  0  0  0  0  0  0
   -6.2997    0.2390    0.2942 C   0  0  0  0  0  0  0  0  0  0  0  0
   -2.3208    0.6120   -2.5247 O   0  0  0  0  0  0  0  0  0  0  0  0
   -3.1740    0.7836   -3.6339 C   0  0  0  0  0  0  0  0  0  0  0  0
    2.9754   -3.1098   -0.7567 O   0  0  0  0  0  0  0  0  0  0  0  0
    3.6722   -3.5595   -1.8657 C   0  0  0  0  0  0  0  0  0  0  0  0
    4.6113   -4.6612   -1.4631 C   0  0  0  0  0  0  0  0  0  0  0  0
  1  2  1  0
  2  3  2  0
  3  4  1  0
  4  5  2  0
  5  6  1  0
  6  7  2  0
  2  7  1  0
  1  8  2  0
  1  9  1  0
 10 11  1  0
 11 12  1  6
 12 13  1  0
 13 14  1  0
 14 15  1  0
 10 15  1  0
 17 18  1  0
 18 19  2  0
 19 20  1  0
 20 21  2  0
 21 22  1  0
 22 23  2  0
 23 24  1  0
 24 25  2  0
 17 25  1  0
 20 25  1  0
 24 26  1  0
 27 28  1  0
 22 27  1  0
 16 21  1  0
 10 16  1  0
 30 31  1  0
 29 30  1  0
 13 29  1  1
 11  5  1  0
M  END
>  <molecule_name>  (14) 
IPTACOPAN

>  <target_name>  (14) 
Complement factor B

>  <organism>  (14) 
Homo sapiens

>  <chembl_id>  (14) 
CHEMBL4594448

>  <activity_info>  (14) 
IC50: 7.07|Kd: 8.10

>  <pACT>  (14) 
7.327500000000001

>  <ID>  (14) 
RENRQMCACQEWFC-UGKGYDQZSA-N

>  <conforer_id>  (14) 
conf49

$$$$
RENRQMCACQEWFC-UGKGYDQZSA-N
     RDKit          3D

 31 34  0  0  1  0  0  0  0  0999 V2000
    3.1112    5.1417    1.8089 C   0  0  0  0  0  0  0  0  0  0  0  0
    2.7050    3.7733    1.5320 C   0  0  0  0  0  0  0  0  0  0  0  0
    1.5750    3.2148    2.0509 C   0  0  0  0  0  0  0  0  0  0  0  0
    1.1959    1.9031    1.7632 C   0  0  0  0  0  0  0  0  0  0  0  0
    1.9518    1.1182    0.9375 C   0  0  0  0  0  0  0  0  0  0  0  0
    3.0916    1.6825    0.4120 C   0  0  0  0  0  0  0  0  0  0  0  0
    3.4877    2.9886    0.6884 C   0  0  0  0  0  0  0  0  0  0  0  0
    2.4098    5.8738    2.5379 O   0  0  0  0  0  0  0  0  0  0  0  0
    4.2801    5.6419    1.2664 O   0  0  0  0  0  0  0  0  0  0  0  0
    0.2166   -0.4833    0.4208 N   0  0  0  0  0  0  0  0  0  0  0  0
    1.5962   -0.2782    0.6185 C   0  0  1  0  0  0  0  0  0  0  0  0
    2.4913   -0.8309   -0.4482 C   0  0  0  0  0  0  0  0  0  0  0  0
    2.0491   -2.0893   -1.0713 C   0  0  2  0  0  0  0  0  0  0  0  0
    0.7016   -2.5794   -0.7462 C   0  0  0  0  0  0  0  0  0  0  0  0
   -0.1187   -1.8319    0.2344 C   0  0  0  0  0  0  0  0  0  0  0  0
   -0.5324    0.4840   -0.2545 C   0  0  0  0  0  0  0  0  0  0  0  0
   -4.3000   -0.1557    2.4982 N   0  0  0  0  0  0  0  0  0  0  0  0
   -3.1551   -0.2854    3.1805 C   0  0  0  0  0  0  0  0  0  0  0  0
   -2.0910   -0.1452    2.3140 C   0  0  0  0  0  0  0  0  0  0  0  0
   -2.6173    0.0827    1.0577 C   0  0  0  0  0  0  0  0  0  0  0  0
   -1.9967    0.2709   -0.1913 C   0  0  0  0  0  0  0  0  0  0  0  0
   -2.8488    0.4337   -1.2754 C   0  0  0  0  0  0  0  0  0  0  0  0
   -4.2175    0.4148   -1.1062 C   0  0  0  0  0  0  0  0  0  0  0  0
   -4.8111    0.2328    0.1355 C   0  0  0  0  0  0  0  0  0  0  0  0
   -3.9891    0.0687    1.2034 C   0  0  0  0  0  0  0  0  0  0  0  0
   -6.2997    0.2390    0.2942 C   0  0  0  0  0  0  0  0  0  0  0  0
   -2.3208    0.6120   -2.5247 O   0  0  0  0  0  0  0  0  0  0  0  0
   -3.1740    0.7836   -3.6339 C   0  0  0  0  0  0  0  0  0  0  0  0
    2.9754   -3.1098   -0.7567 O   0  0  0  0  0  0  0  0  0  0  0  0
    3.6722   -3.5595   -1.8657 C   0  0  0  0  0  0  0  0  0  0  0  0
    4.6113   -4.6612   -1.4631 C   0  0  0  0  0  0  0  0  0  0  0  0
  1  2  1  0
  2  3  2  0
  3  4  1  0
  4  5  2  0
  5  6  1  0
  6  7  2  0
  2  7  1  0
  1  8  2  0
  1  9  1  0
 10 11  1  0
 11 12  1  6
 12 13  1  0
 13 14  1  0
 14 15  1  0
 10 15  1  0
 17 18  1  0
 18 19  2  0
 19 20  1  0
 20 21  2  0
 21 22  1  0
 22 23  2  0
 23 24  1  0
 24 25  2  0
 17 25  1  0
 20 25  1  0
 24 26  1  0
 27 28  1  0
 22 27  1  0
 16 21  1  0
 10 16  1  0
 30 31  1  0
 29 30  1  0
 13 29  1  1
 11  5  1  0
M  END
>  <molecule_name>  (15) 
IPTACOPAN

>  <target_name>  (15) 
Complement factor B

>  <organism>  (15) 
Homo sapiens

>  <chembl_id>  (15) 
CHEMBL4594448

>  <activity_info>  (15) 
IC50: 7.07|Kd: 8.10

>  <pACT>  (15) 
7.327500000000001

>  <ID>  (15) 
RENRQMCACQEWFC-UGKGYDQZSA-N

>  <conforer_id>  (15) 
conf49

$$$$
RENRQMCACQEWFC-UGKGYDQZSA-N
     RDKit          3D

 31 34  0  0  1  0  0  0  0  0999 V2000
    3.1112    5.1417    1.8089 C   0  0  0  0  0  0  0  0  0  0  0  0
    2.7050    3.7733    1.5320 C   0  0  0  0  0  0  0  0  0  0  0  0
    1.5750    3.2148    2.0509 C   0  0  0  0  0  0  0  0  0  0  0  0
    1.1959    1.9031    1.7632 C   0  0  0  0  0  0  0  0  0  0  0  0
    1.9518    1.1182    0.9375 C   0  0  0  0  0  0  0  0  0  0  0  0
    3.0916    1.6825    0.4120 C   0  0  0  0  0  0  0  0  0  0  0  0
    3.4877    2.9886    0.6884 C   0  0  0  0  0  0  0  0  0  0  0  0
    2.4098    5.8738    2.5379 O   0  0  0  0  0  0  0  0  0  0  0  0
    4.2801    5.6419    1.2664 O   0  0  0  0  0  0  0  0  0  0  0  0
    0.2166   -0.4833    0.4208 N   0  0  0  0  0  0  0  0  0  0  0  0
    1.5962   -0.2782    0.6185 C   0  0  1  0  0  0  0  0  0  0  0  0
    2.4913   -0.8309   -0.4482 C   0  0  0  0  0  0  0  0  0  0  0  0
    2.0491   -2.0893   -1.0713 C   0  0  2  0  0  0  0  0  0  0  0  0
    0.7016   -2.5794   -0.7462 C   0  0  0  0  0  0  0  0  0  0  0  0
   -0.1187   -1.8319    0.2344 C   0  0  0  0  0  0  0  0  0  0  0  0
   -0.5324    0.4840   -0.2545 C   0  0  0  0  0  0  0  0  0  0  0  0
   -4.3000   -0.1557    2.4982 N   0  0  0  0  0  0  0  0  0  0  0  0
   -3.1551   -0.2854    3.1805 C   0  0  0  0  0  0  0  0  0  0  0  0
   -2.0910   -0.1452    2.3140 C   0  0  0  0  0  0  0  0  0  0  0  0
   -2.6173    0.0827    1.0577 C   0  0  0  0  0  0  0  0  0  0  0  0
   -1.9967    0.2709   -0.1913 C   0  0  0  0  0  0  0  0  0  0  0  0
   -2.8488    0.4337   -1.2754 C   0  0  0  0  0  0  0  0  0  0  0  0
   -4.2175    0.4148   -1.1062 C   0  0  0  0  0  0  0  0  0  0  0  0
   -4.8111    0.2328    0.1355 C   0  0  0  0  0  0  0  0  0  0  0  0
   -3.9891    0.0687    1.2034 C   0  0  0  0  0  0  0  0  0  0  0  0
   -6.2997    0.2390    0.2942 C   0  0  0  0  0  0  0  0  0  0  0  0
   -2.3208    0.6120   -2.5247 O   0  0  0  0  0  0  0  0  0  0  0  0
   -3.1740    0.7836   -3.6339 C   0  0  0  0  0  0  0  0  0  0  0  0
    2.9754   -3.1098   -0.7567 O   0  0  0  0  0  0  0  0  0  0  0  0
    3.6722   -3.5595   -1.8657 C   0  0  0  0  0  0  0  0  0  0  0  0
    4.6113   -4.6612   -1.4631 C   0  0  0  0  0  0  0  0  0  0  0  0
  1  2  1  0
  2  3  2  0
  3  4  1  0
  4  5  2  0
  5  6  1  0
  6  7  2  0
  2  7  1  0
  1  8  2  0
  1  9  1  0
 10 11  1  0
 11 12  1  6
 12 13  1  0
 13 14  1  0
 14 15  1  0
 10 15  1  0
 17 18  1  0
 18 19  2  0
 19 20  1  0
 20 21  2  0
 21 22  1  0
 22 23  2  0
 23 24  1  0
 24 25  2  0
 17 25  1  0
 20 25  1  0
 24 26  1  0
 27 28  1  0
 22 27  1  0
 16 21  1  0
 10 16  1  0
 30 31  1  0
 29 30  1  0
 13 29  1  1
 11  5  1  0
M  END
>  <molecule_name>  (16) 
IPTACOPAN

>  <target_name>  (16) 
Complement factor B

>  <organism>  (16) 
Homo sapiens

>  <chembl_id>  (16) 
CHEMBL4594448

>  <activity_info>  (16) 
IC50: 7.07|Kd: 8.10

>  <pACT>  (16) 
7.327500000000001

>  <ID>  (16) 
RENRQMCACQEWFC-UGKGYDQZSA-N

>  <conforer_id>  (16) 
conf49

$$$$
RENRQMCACQEWFC-UGKGYDQZSA-N
     RDKit          3D

 31 34  0  0  1  0  0  0  0  0999 V2000
    3.1112    5.1417    1.8089 C   0  0  0  0  0  0  0  0  0  0  0  0
    2.7050    3.7733    1.5320 C   0  0  0  0  0  0  0  0  0  0  0  0
    1.5750    3.2148    2.0509 C   0  0  0  0  0  0  0  0  0  0  0  0
    1.1959    1.9031    1.7632 C   0  0  0  0  0  0  0  0  0  0  0  0
    1.9518    1.1182    0.9375 C   0  0  0  0  0  0  0  0  0  0  0  0
    3.0916    1.6825    0.4120 C   0  0  0  0  0  0  0  0  0  0  0  0
    3.4877    2.9886    0.6884 C   0  0  0  0  0  0  0  0  0  0  0  0
    2.4098    5.8738    2.5379 O   0  0  0  0  0  0  0  0  0  0  0  0
    4.2801    5.6419    1.2664 O   0  0  0  0  0  0  0  0  0  0  0  0
    0.2166   -0.4833    0.4208 N   0  0  0  0  0  0  0  0  0  0  0  0
    1.5962   -0.2782    0.6185 C   0  0  1  0  0  0  0  0  0  0  0  0
    2.4913   -0.8309   -0.4482 C   0  0  0  0  0  0  0  0  0  0  0  0
    2.0491   -2.0893   -1.0713 C   0  0  2  0  0  0  0  0  0  0  0  0
    0.7016   -2.5794   -0.7462 C   0  0  0  0  0  0  0  0  0  0  0  0
   -0.1187   -1.8319    0.2344 C   0  0  0  0  0  0  0  0  0  0  0  0
   -0.5324    0.4840   -0.2545 C   0  0  0  0  0  0  0  0  0  0  0  0
   -4.3000   -0.1557    2.4982 N   0  0  0  0  0  0  0  0  0  0  0  0
   -3.1551   -0.2854    3.1805 C   0  0  0  0  0  0  0  0  0  0  0  0
   -2.0910   -0.1452    2.3140 C   0  0  0  0  0  0  0  0  0  0  0  0
   -2.6173    0.0827    1.0577 C   0  0  0  0  0  0  0  0  0  0  0  0
   -1.9967    0.2709   -0.1913 C   0  0  0  0  0  0  0  0  0  0  0  0
   -2.8488    0.4337   -1.2754 C   0  0  0  0  0  0  0  0  0  0  0  0
   -4.2175    0.4148   -1.1062 C   0  0  0  0  0  0  0  0  0  0  0  0
   -4.8111    0.2328    0.1355 C   0  0  0  0  0  0  0  0  0  0  0  0
   -3.9891    0.0687    1.2034 C   0  0  0  0  0  0  0  0  0  0  0  0
   -6.2997    0.2390    0.2942 C   0  0  0  0  0  0  0  0  0  0  0  0
   -2.3208    0.6120   -2.5247 O   0  0  0  0  0  0  0  0  0  0  0  0
   -3.1740    0.7836   -3.6339 C   0  0  0  0  0  0  0  0  0  0  0  0
    2.9754   -3.1098   -0.7567 O   0  0  0  0  0  0  0  0  0  0  0  0
    3.6722   -3.5595   -1.8657 C   0  0  0  0  0  0  0  0  0  0  0  0
    4.6113   -4.6612   -1.4631 C   0  0  0  0  0  0  0  0  0  0  0  0
  1  2  1  0
  2  3  2  0
  3  4  1  0
  4  5  2  0
  5  6  1  0
  6  7  2  0
  2  7  1  0
  1  8  2  0
  1  9  1  0
 10 11  1  0
 11 12  1  6
 12 13  1  0
 13 14  1  0
 14 15  1  0
 10 15  1  0
 17 18  1  0
 18 19  2  0
 19 20  1  0
 20 21  2  0
 21 22  1  0
 22 23  2  0
 23 24  1  0
 24 25  2  0
 17 25  1  0
 20 25  1  0
 24 26  1  0
 27 28  1  0
 22 27  1  0
 16 21  1  0
 10 16  1  0
 30 31  1  0
 29 30  1  0
 13 29  1  1
 11  5  1  0
M  END
>  <molecule_name>  (17) 
IPTACOPAN

>  <target_name>  (17) 
Complement factor B

>  <organism>  (17) 
Homo sapiens

>  <chembl_id>  (17) 
CHEMBL4594448

>  <activity_info>  (17) 
IC50: 7.07|Kd: 8.10

>  <pACT>  (17) 
7.327500000000001

>  <ID>  (17) 
RENRQMCACQEWFC-UGKGYDQZSA-N

>  <conforer_id>  (17) 
conf49

$$$$
RENRQMCACQEWFC-UGKGYDQZSA-N
     RDKit          3D

 31 34  0  0  1  0  0  0  0  0999 V2000
    3.1112    5.1417    1.8089 C   0  0  0  0  0  0  0  0  0  0  0  0
    2.7050    3.7733    1.5320 C   0  0  0  0  0  0  0  0  0  0  0  0
    1.5750    3.2148    2.0509 C   0  0  0  0  0  0  0  0  0  0  0  0
    1.1959    1.9031    1.7632 C   0  0  0  0  0  0  0  0  0  0  0  0
    1.9518    1.1182    0.9375 C   0  0  0  0  0  0  0  0  0  0  0  0
    3.0916    1.6825    0.4120 C   0  0  0  0  0  0  0  0  0  0  0  0
    3.4877    2.9886    0.6884 C   0  0  0  0  0  0  0  0  0  0  0  0
    2.4098    5.8738    2.5379 O   0  0  0  0  0  0  0  0  0  0  0  0
    4.2801    5.6419    1.2664 O   0  0  0  0  0  0  0  0  0  0  0  0
    0.2166   -0.4833    0.4208 N   0  0  0  0  0  0  0  0  0  0  0  0
    1.5962   -0.2782    0.6185 C   0  0  1  0  0  0  0  0  0  0  0  0
    2.4913   -0.8309   -0.4482 C   0  0  0  0  0  0  0  0  0  0  0  0
    2.0491   -2.0893   -1.0713 C   0  0  2  0  0  0  0  0  0  0  0  0
    0.7016   -2.5794   -0.7462 C   0  0  0  0  0  0  0  0  0  0  0  0
   -0.1187   -1.8319    0.2344 C   0  0  0  0  0  0  0  0  0  0  0  0
   -0.5324    0.4840   -0.2545 C   0  0  0  0  0  0  0  0  0  0  0  0
   -4.3000   -0.1557    2.4982 N   0  0  0  0  0  0  0  0  0  0  0  0
   -3.1551   -0.2854    3.1805 C   0  0  0  0  0  0  0  0  0  0  0  0
   -2.0910   -0.1452    2.3140 C   0  0  0  0  0  0  0  0  0  0  0  0
   -2.6173    0.0827    1.0577 C   0  0  0  0  0  0  0  0  0  0  0  0
   -1.9967    0.2709   -0.1913 C   0  0  0  0  0  0  0  0  0  0  0  0
   -2.8488    0.4337   -1.2754 C   0  0  0  0  0  0  0  0  0  0  0  0
   -4.2175    0.4148   -1.1062 C   0  0  0  0  0  0  0  0  0  0  0  0
   -4.8111    0.2328    0.1355 C   0  0  0  0  0  0  0  0  0  0  0  0
   -3.9891    0.0687    1.2034 C   0  0  0  0  0  0  0  0  0  0  0  0
   -6.2997    0.2390    0.2942 C   0  0  0  0  0  0  0  0  0  0  0  0
   -2.3208    0.6120   -2.5247 O   0  0  0  0  0  0  0  0  0  0  0  0
   -3.1740    0.7836   -3.6339 C   0  0  0  0  0  0  0  0  0  0  0  0
    2.9754   -3.1098   -0.7567 O   0  0  0  0  0  0  0  0  0  0  0  0
    3.6722   -3.5595   -1.8657 C   0  0  0  0  0  0  0  0  0  0  0  0
    4.6113   -4.6612   -1.4631 C   0  0  0  0  0  0  0  0  0  0  0  0
  1  2  1  0
  2  3  2  0
  3  4  1  0
  4  5  2  0
  5  6  1  0
  6  7  2  0
  2  7  1  0
  1  8  2  0
  1  9  1  0
 10 11  1  0
 11 12  1  6
 12 13  1  0
 13 14  1  0
 14 15  1  0
 10 15  1  0
 17 18  1  0
 18 19  2  0
 19 20  1  0
 20 21  2  0
 21 22  1  0
 22 23  2  0
 23 24  1  0
 24 25  2  0
 17 25  1  0
 20 25  1  0
 24 26  1  0
 27 28  1  0
 22 27  1  0
 16 21  1  0
 10 16  1  0
 30 31  1  0
 29 30  1  0
 13 29  1  1
 11  5  1  0
M  END
>  <molecule_name>  (18) 
IPTACOPAN

>  <target_name>  (18) 
Complement factor B

>  <organism>  (18) 
Homo sapiens

>  <chembl_id>  (18) 
CHEMBL4594448

>  <activity_info>  (18) 
IC50: 7.07|Kd: 8.10

>  <pACT>  (18) 
7.327500000000001

>  <ID>  (18) 
RENRQMCACQEWFC-UGKGYDQZSA-N

>  <conforer_id>  (18) 
conf49

$$$$
RENRQMCACQEWFC-UGKGYDQZSA-N
     RDKit          3D

 31 34  0  0  1  0  0  0  0  0999 V2000
    3.1112    5.1417    1.8089 C   0  0  0  0  0  0  0  0  0  0  0  0
    2.7050    3.7733    1.5320 C   0  0  0  0  0  0  0  0  0  0  0  0
    1.5750    3.2148    2.0509 C   0  0  0  0  0  0  0  0  0  0  0  0
    1.1959    1.9031    1.7632 C   0  0  0  0  0  0  0  0  0  0  0  0
    1.9518    1.1182    0.9375 C   0  0  0  0  0  0  0  0  0  0  0  0
    3.0916    1.6825    0.4120 C   0  0  0  0  0  0  0  0  0  0  0  0
    3.4877    2.9886    0.6884 C   0  0  0  0  0  0  0  0  0  0  0  0
    2.4098    5.8738    2.5379 O   0  0  0  0  0  0  0  0  0  0  0  0
    4.2801    5.6419    1.2664 O   0  0  0  0  0  0  0  0  0  0  0  0
    0.2166   -0.4833    0.4208 N   0  0  0  0  0  0  0  0  0  0  0  0
    1.5962   -0.2782    0.6185 C   0  0  1  0  0  0  0  0  0  0  0  0
    2.4913   -0.8309   -0.4482 C   0  0  0  0  0  0  0  0  0  0  0  0
    2.0491   -2.0893   -1.0713 C   0  0  2  0  0  0  0  0  0  0  0  0
    0.7016   -2.5794   -0.7462 C   0  0  0  0  0  0  0  0  0  0  0  0
   -0.1187   -1.8319    0.2344 C   0  0  0  0  0  0  0  0  0  0  0  0
   -0.5324    0.4840   -0.2545 C   0  0  0  0  0  0  0  0  0  0  0  0
   -4.3000   -0.1557    2.4982 N   0  0  0  0  0  0  0  0  0  0  0  0
   -3.1551   -0.2854    3.1805 C   0  0  0  0  0  0  0  0  0  0  0  0
   -2.0910   -0.1452    2.3140 C   0  0  0  0  0  0  0  0  0  0  0  0
   -2.6173    0.0827    1.0577 C   0  0  0  0  0  0  0  0  0  0  0  0
   -1.9967    0.2709   -0.1913 C   0  0  0  0  0  0  0  0  0  0  0  0
   -2.8488    0.4337   -1.2754 C   0  0  0  0  0  0  0  0  0  0  0  0
   -4.2175    0.4148   -1.1062 C   0  0  0  0  0  0  0  0  0  0  0  0
   -4.8111    0.2328    0.1355 C   0  0  0  0  0  0  0  0  0  0  0  0
   -3.9891    0.0687    1.2034 C   0  0  0  0  0  0  0  0  0  0  0  0
   -6.2997    0.2390    0.2942 C   0  0  0  0  0  0  0  0  0  0  0  0
   -2.3208    0.6120   -2.5247 O   0  0  0  0  0  0  0  0  0  0  0  0
   -3.1740    0.7836   -3.6339 C   0  0  0  0  0  0  0  0  0  0  0  0
    2.9754   -3.1098   -0.7567 O   0  0  0  0  0  0  0  0  0  0  0  0
    3.6722   -3.5595   -1.8657 C   0  0  0  0  0  0  0  0  0  0  0  0
    4.6113   -4.6612   -1.4631 C   0  0  0  0  0  0  0  0  0  0  0  0
  1  2  1  0
  2  3  2  0
  3  4  1  0
  4  5  2  0
  5  6  1  0
  6  7  2  0
  2  7  1  0
  1  8  2  0
  1  9  1  0
 10 11  1  0
 11 12  1  6
 12 13  1  0
 13 14  1  0
 14 15  1  0
 10 15  1  0
 17 18  1  0
 18 19  2  0
 19 20  1  0
 20 21  2  0
 21 22  1  0
 22 23  2  0
 23 24  1  0
 24 25  2  0
 17 25  1  0
 20 25  1  0
 24 26  1  0
 27 28  1  0
 22 27  1  0
 16 21  1  0
 10 16  1  0
 30 31  1  0
 29 30  1  0
 13 29  1  1
 11  5  1  0
M  END
>  <molecule_name>  (19) 
IPTACOPAN

>  <target_name>  (19) 
Complement factor B

>  <organism>  (19) 
Homo sapiens

>  <chembl_id>  (19) 
CHEMBL4594448

>  <activity_info>  (19) 
IC50: 7.07|Kd: 8.10

>  <pACT>  (19) 
7.327500000000001

>  <ID>  (19) 
RENRQMCACQEWFC-UGKGYDQZSA-N

>  <conforer_id>  (19) 
conf49

$$$$
RENRQMCACQEWFC-UGKGYDQZSA-N
     RDKit          3D

 31 34  0  0  1  0  0  0  0  0999 V2000
    3.1112    5.1417    1.8089 C   0  0  0  0  0  0  0  0  0  0  0  0
    2.7050    3.7733    1.5320 C   0  0  0  0  0  0  0  0  0  0  0  0
    1.5750    3.2148    2.0509 C   0  0  0  0  0  0  0  0  0  0  0  0
    1.1959    1.9031    1.7632 C   0  0  0  0  0  0  0  0  0  0  0  0
    1.9518    1.1182    0.9375 C   0  0  0  0  0  0  0  0  0  0  0  0
    3.0916    1.6825    0.4120 C   0  0  0  0  0  0  0  0  0  0  0  0
    3.4877    2.9886    0.6884 C   0  0  0  0  0  0  0  0  0  0  0  0
    2.4098    5.8738    2.5379 O   0  0  0  0  0  0  0  0  0  0  0  0
    4.2801    5.6419    1.2664 O   0  0  0  0  0  0  0  0  0  0  0  0
    0.2166   -0.4833    0.4208 N   0  0  0  0  0  0  0  0  0  0  0  0
    1.5962   -0.2782    0.6185 C   0  0  1  0  0  0  0  0  0  0  0  0
    2.4913   -0.8309   -0.4482 C   0  0  0  0  0  0  0  0  0  0  0  0
    2.0491   -2.0893   -1.0713 C   0  0  2  0  0  0  0  0  0  0  0  0
    0.7016   -2.5794   -0.7462 C   0  0  0  0  0  0  0  0  0  0  0  0
   -0.1187   -1.8319    0.2344 C   0  0  0  0  0  0  0  0  0  0  0  0
   -0.5324    0.4840   -0.2545 C   0  0  0  0  0  0  0  0  0  0  0  0
   -4.3000   -0.1557    2.4982 N   0  0  0  0  0  0  0  0  0  0  0  0
   -3.1551   -0.2854    3.1805 C   0  0  0  0  0  0  0  0  0  0  0  0
   -2.0910   -0.1452    2.3140 C   0  0  0  0  0  0  0  0  0  0  0  0
   -2.6173    0.0827    1.0577 C   0  0  0  0  0  0  0  0  0  0  0  0
   -1.9967    0.2709   -0.1913 C   0  0  0  0  0  0  0  0  0  0  0  0
   -2.8488    0.4337   -1.2754 C   0  0  0  0  0  0  0  0  0  0  0  0
   -4.2175    0.4148   -1.1062 C   0  0  0  0  0  0  0  0  0  0  0  0
   -4.8111    0.2328    0.1355 C   0  0  0  0  0  0  0  0  0  0  0  0
   -3.9891    0.0687    1.2034 C   0  0  0  0  0  0  0  0  0  0  0  0
   -6.2997    0.2390    0.2942 C   0  0  0  0  0  0  0  0  0  0  0  0
   -2.3208    0.6120   -2.5247 O   0  0  0  0  0  0  0  0  0  0  0  0
   -3.1740    0.7836   -3.6339 C   0  0  0  0  0  0  0  0  0  0  0  0
    2.9754   -3.1098   -0.7567 O   0  0  0  0  0  0  0  0  0  0  0  0
    3.6722   -3.5595   -1.8657 C   0  0  0  0  0  0  0  0  0  0  0  0
    4.6113   -4.6612   -1.4631 C   0  0  0  0  0  0  0  0  0  0  0  0
  1  2  1  0
  2  3  2  0
  3  4  1  0
  4  5  2  0
  5  6  1  0
  6  7  2  0
  2  7  1  0
  1  8  2  0
  1  9  1  0
 10 11  1  0
 11 12  1  6
 12 13  1  0
 13 14  1  0
 14 15  1  0
 10 15  1  0
 17 18  1  0
 18 19  2  0
 19 20  1  0
 20 21  2  0
 21 22  1  0
 22 23  2  0
 23 24  1  0
 24 25  2  0
 17 25  1  0
 20 25  1  0
 24 26  1  0
 27 28  1  0
 22 27  1  0
 16 21  1  0
 10 16  1  0
 30 31  1  0
 29 30  1  0
 13 29  1  1
 11  5  1  0
M  END
>  <molecule_name>  (20) 
IPTACOPAN

>  <target_name>  (20) 
Complement factor B

>  <organism>  (20) 
Homo sapiens

>  <chembl_id>  (20) 
CHEMBL4594448

>  <activity_info>  (20) 
IC50: 7.07|Kd: 8.10

>  <pACT>  (20) 
7.327500000000001

>  <ID>  (20) 
RENRQMCACQEWFC-UGKGYDQZSA-N

>  <conforer_id>  (20) 
conf49

$$$$
RENRQMCACQEWFC-UGKGYDQZSA-N
     RDKit          3D

 31 34  0  0  1  0  0  0  0  0999 V2000
    3.1112    5.1417    1.8089 C   0  0  0  0  0  0  0  0  0  0  0  0
    2.7050    3.7733    1.5320 C   0  0  0  0  0  0  0  0  0  0  0  0
    1.5750    3.2148    2.0509 C   0  0  0  0  0  0  0  0  0  0  0  0
    1.1959    1.9031    1.7632 C   0  0  0  0  0  0  0  0  0  0  0  0
    1.9518    1.1182    0.9375 C   0  0  0  0  0  0  0  0  0  0  0  0
    3.0916    1.6825    0.4120 C   0  0  0  0  0  0  0  0  0  0  0  0
    3.4877    2.9886    0.6884 C   0  0  0  0  0  0  0  0  0  0  0  0
    2.4098    5.8738    2.5379 O   0  0  0  0  0  0  0  0  0  0  0  0
    4.2801    5.6419    1.2664 O   0  0  0  0  0  0  0  0  0  0  0  0
    0.2166   -0.4833    0.4208 N   0  0  0  0  0  0  0  0  0  0  0  0
    1.5962   -0.2782    0.6185 C   0  0  1  0  0  0  0  0  0  0  0  0
    2.4913   -0.8309   -0.4482 C   0  0  0  0  0  0  0  0  0  0  0  0
    2.0491   -2.0893   -1.0713 C   0  0  2  0  0  0  0  0  0  0  0  0
    0.7016   -2.5794   -0.7462 C   0  0  0  0  0  0  0  0  0  0  0  0
   -0.1187   -1.8319    0.2344 C   0  0  0  0  0  0  0  0  0  0  0  0
   -0.5324    0.4840   -0.2545 C   0  0  0  0  0  0  0  0  0  0  0  0
   -4.3000   -0.1557    2.4982 N   0  0  0  0  0  0  0  0  0  0  0  0
   -3.1551   -0.2854    3.1805 C   0  0  0  0  0  0  0  0  0  0  0  0
   -2.0910   -0.1452    2.3140 C   0  0  0  0  0  0  0  0  0  0  0  0
   -2.6173    0.0827    1.0577 C   0  0  0  0  0  0  0  0  0  0  0  0
   -1.9967    0.2709   -0.1913 C   0  0  0  0  0  0  0  0  0  0  0  0
   -2.8488    0.4337   -1.2754 C   0  0  0  0  0  0  0  0  0  0  0  0
   -4.2175    0.4148   -1.1062 C   0  0  0  0  0  0  0  0  0  0  0  0
   -4.8111    0.2328    0.1355 C   0  0  0  0  0  0  0  0  0  0  0  0
   -3.9891    0.0687    1.2034 C   0  0  0  0  0  0  0  0  0  0  0  0
   -6.2997    0.2390    0.2942 C   0  0  0  0  0  0  0  0  0  0  0  0
   -2.3208    0.6120   -2.5247 O   0  0  0  0  0  0  0  0  0  0  0  0
   -3.1740    0.7836   -3.6339 C   0  0  0  0  0  0  0  0  0  0  0  0
    2.9754   -3.1098   -0.7567 O   0  0  0  0  0  0  0  0  0  0  0  0
    3.6722   -3.5595   -1.8657 C   0  0  0  0  0  0  0  0  0  0  0  0
    4.6113   -4.6612   -1.4631 C   0  0  0  0  0  0  0  0  0  0  0  0
  1  2  1  0
  2  3  2  0
  3  4  1  0
  4  5  2  0
  5  6  1  0
  6  7  2  0
  2  7  1  0
  1  8  2  0
  1  9  1  0
 10 11  1  0
 11 12  1  6
 12 13  1  0
 13 14  1  0
 14 15  1  0
 10 15  1  0
 17 18  1  0
 18 19  2  0
 19 20  1  0
 20 21  2  0
 21 22  1  0
 22 23  2  0
 23 24  1  0
 24 25  2  0
 17 25  1  0
 20 25  1  0
 24 26  1  0
 27 28  1  0
 22 27  1  0
 16 21  1  0
 10 16  1  0
 30 31  1  0
 29 30  1  0
 13 29  1  1
 11  5  1  0
M  END
>  <molecule_name>  (21) 
IPTACOPAN

>  <target_name>  (21) 
Complement factor B

>  <organism>  (21) 
Homo sapiens

>  <chembl_id>  (21) 
CHEMBL4594448

>  <activity_info>  (21) 
IC50: 7.07|Kd: 8.10

>  <pACT>  (21) 
7.327500000000001

>  <ID>  (21) 
RENRQMCACQEWFC-UGKGYDQZSA-N

>  <conforer_id>  (21) 
conf49

$$$$
RENRQMCACQEWFC-UGKGYDQZSA-N
     RDKit          3D

 31 34  0  0  1  0  0  0  0  0999 V2000
    3.1112    5.1417    1.8089 C   0  0  0  0  0  0  0  0  0  0  0  0
    2.7050    3.7733    1.5320 C   0  0  0  0  0  0  0  0  0  0  0  0
    1.5750    3.2148    2.0509 C   0  0  0  0  0  0  0  0  0  0  0  0
    1.1959    1.9031    1.7632 C   0  0  0  0  0  0  0  0  0  0  0  0
    1.9518    1.1182    0.9375 C   0  0  0  0  0  0  0  0  0  0  0  0
    3.0916    1.6825    0.4120 C   0  0  0  0  0  0  0  0  0  0  0  0
    3.4877    2.9886    0.6884 C   0  0  0  0  0  0  0  0  0  0  0  0
    2.4098    5.8738    2.5379 O   0  0  0  0  0  0  0  0  0  0  0  0
    4.2801    5.6419    1.2664 O   0  0  0  0  0  0  0  0  0  0  0  0
    0.2166   -0.4833    0.4208 N   0  0  0  0  0  0  0  0  0  0  0  0
    1.5962   -0.2782    0.6185 C   0  0  1  0  0  0  0  0  0  0  0  0
    2.4913   -0.8309   -0.4482 C   0  0  0  0  0  0  0  0  0  0  0  0
    2.0491   -2.0893   -1.0713 C   0  0  2  0  0  0  0  0  0  0  0  0
    0.7016   -2.5794   -0.7462 C   0  0  0  0  0  0  0  0  0  0  0  0
   -0.1187   -1.8319    0.2344 C   0  0  0  0  0  0  0  0  0  0  0  0
   -0.5324    0.4840   -0.2545 C   0  0  0  0  0  0  0  0  0  0  0  0
   -4.3000   -0.1557    2.4982 N   0  0  0  0  0  0  0  0  0  0  0  0
   -3.1551   -0.2854    3.1805 C   0  0  0  0  0  0  0  0  0  0  0  0
   -2.0910   -0.1452    2.3140 C   0  0  0  0  0  0  0  0  0  0  0  0
   -2.6173    0.0827    1.0577 C   0  0  0  0  0  0  0  0  0  0  0  0
   -1.9967    0.2709   -0.1913 C   0  0  0  0  0  0  0  0  0  0  0  0
   -2.8488    0.4337   -1.2754 C   0  0  0  0  0  0  0  0  0  0  0  0
   -4.2175    0.4148   -1.1062 C   0  0  0  0  0  0  0  0  0  0  0  0
   -4.8111    0.2328    0.1355 C   0  0  0  0  0  0  0  0  0  0  0  0
   -3.9891    0.0687    1.2034 C   0  0  0  0  0  0  0  0  0  0  0  0
   -6.2997    0.2390    0.2942 C   0  0  0  0  0  0  0  0  0  0  0  0
   -2.3208    0.6120   -2.5247 O   0  0  0  0  0  0  0  0  0  0  0  0
   -3.1740    0.7836   -3.6339 C   0  0  0  0  0  0  0  0  0  0  0  0
    2.9754   -3.1098   -0.7567 O   0  0  0  0  0  0  0  0  0  0  0  0
    3.6722   -3.5595   -1.8657 C   0  0  0  0  0  0  0  0  0  0  0  0
    4.6113   -4.6612   -1.4631 C   0  0  0  0  0  0  0  0  0  0  0  0
  1  2  1  0
  2  3  2  0
  3  4  1  0
  4  5  2  0
  5  6  1  0
  6  7  2  0
  2  7  1  0
  1  8  2  0
  1  9  1  0
 10 11  1  0
 11 12  1  6
 12 13  1  0
 13 14  1  0
 14 15  1  0
 10 15  1  0
 17 18  1  0
 18 19  2  0
 19 20  1  0
 20 21  2  0
 21 22  1  0
 22 23  2  0
 23 24  1  0
 24 25  2  0
 17 25  1  0
 20 25  1  0
 24 26  1  0
 27 28  1  0
 22 27  1  0
 16 21  1  0
 10 16  1  0
 30 31  1  0
 29 30  1  0
 13 29  1  1
 11  5  1  0
M  END
>  <molecule_name>  (22) 
IPTACOPAN

>  <target_name>  (22) 
Complement factor B

>  <organism>  (22) 
Homo sapiens

>  <chembl_id>  (22) 
CHEMBL4594448

>  <activity_info>  (22) 
IC50: 7.07|Kd: 8.10

>  <pACT>  (22) 
7.327500000000001

>  <ID>  (22) 
RENRQMCACQEWFC-UGKGYDQZSA-N

>  <conforer_id>  (22) 
conf49

$$$$
RENRQMCACQEWFC-UGKGYDQZSA-N
     RDKit          3D

 31 34  0  0  1  0  0  0  0  0999 V2000
    3.1112    5.1417    1.8089 C   0  0  0  0  0  0  0  0  0  0  0  0
    2.7050    3.7733    1.5320 C   0  0  0  0  0  0  0  0  0  0  0  0
    1.5750    3.2148    2.0509 C   0  0  0  0  0  0  0  0  0  0  0  0
    1.1959    1.9031    1.7632 C   0  0  0  0  0  0  0  0  0  0  0  0
    1.9518    1.1182    0.9375 C   0  0  0  0  0  0  0  0  0  0  0  0
    3.0916    1.6825    0.4120 C   0  0  0  0  0  0  0  0  0  0  0  0
    3.4877    2.9886    0.6884 C   0  0  0  0  0  0  0  0  0  0  0  0
    2.4098    5.8738    2.5379 O   0  0  0  0  0  0  0  0  0  0  0  0
    4.2801    5.6419    1.2664 O   0  0  0  0  0  0  0  0  0  0  0  0
    0.2166   -0.4833    0.4208 N   0  0  0  0  0  0  0  0  0  0  0  0
    1.5962   -0.2782    0.6185 C   0  0  1  0  0  0  0  0  0  0  0  0
    2.4913   -0.8309   -0.4482 C   0  0  0  0  0  0  0  0  0  0  0  0
    2.0491   -2.0893   -1.0713 C   0  0  2  0  0  0  0  0  0  0  0  0
    0.7016   -2.5794   -0.7462 C   0  0  0  0  0  0  0  0  0  0  0  0
   -0.1187   -1.8319    0.2344 C   0  0  0  0  0  0  0  0  0  0  0  0
   -0.5324    0.4840   -0.2545 C   0  0  0  0  0  0  0  0  0  0  0  0
   -4.3000   -0.1557    2.4982 N   0  0  0  0  0  0  0  0  0  0  0  0
   -3.1551   -0.2854    3.1805 C   0  0  0  0  0  0  0  0  0  0  0  0
   -2.0910   -0.1452    2.3140 C   0  0  0  0  0  0  0  0  0  0  0  0
   -2.6173    0.0827    1.0577 C   0  0  0  0  0  0  0  0  0  0  0  0
   -1.9967    0.2709   -0.1913 C   0  0  0  0  0  0  0  0  0  0  0  0
   -2.8488    0.4337   -1.2754 C   0  0  0  0  0  0  0  0  0  0  0  0
   -4.2175    0.4148   -1.1062 C   0  0  0  0  0  0  0  0  0  0  0  0
   -4.8111    0.2328    0.1355 C   0  0  0  0  0  0  0  0  0  0  0  0
   -3.9891    0.0687    1.2034 C   0  0  0  0  0  0  0  0  0  0  0  0
   -6.2997    0.2390    0.2942 C   0  0  0  0  0  0  0  0  0  0  0  0
   -2.3208    0.6120   -2.5247 O   0  0  0  0  0  0  0  0  0  0  0  0
   -3.1740    0.7836   -3.6339 C   0  0  0  0  0  0  0  0  0  0  0  0
    2.9754   -3.1098   -0.7567 O   0  0  0  0  0  0  0  0  0  0  0  0
    3.6722   -3.5595   -1.8657 C   0  0  0  0  0  0  0  0  0  0  0  0
    4.6113   -4.6612   -1.4631 C   0  0  0  0  0  0  0  0  0  0  0  0
  1  2  1  0
  2  3  2  0
  3  4  1  0
  4  5  2  0
  5  6  1  0
  6  7  2  0
  2  7  1  0
  1  8  2  0
  1  9  1  0
 10 11  1  0
 11 12  1  6
 12 13  1  0
 13 14  1  0
 14 15  1  0
 10 15  1  0
 17 18  1  0
 18 19  2  0
 19 20  1  0
 20 21  2  0
 21 22  1  0
 22 23  2  0
 23 24  1  0
 24 25  2  0
 17 25  1  0
 20 25  1  0
 24 26  1  0
 27 28  1  0
 22 27  1  0
 16 21  1  0
 10 16  1  0
 30 31  1  0
 29 30  1  0
 13 29  1  1
 11  5  1  0
M  END
>  <molecule_name>  (23) 
IPTACOPAN

>  <target_name>  (23) 
Complement factor B

>  <organism>  (23) 
Homo sapiens

>  <chembl_id>  (23) 
CHEMBL4594448

>  <activity_info>  (23) 
IC50: 7.07|Kd: 8.10

>  <pACT>  (23) 
7.327500000000001

>  <ID>  (23) 
RENRQMCACQEWFC-UGKGYDQZSA-N

>  <conforer_id>  (23) 
conf49

$$$$
RENRQMCACQEWFC-UGKGYDQZSA-N
     RDKit          3D

 31 34  0  0  1  0  0  0  0  0999 V2000
    3.1112    5.1417    1.8089 C   0  0  0  0  0  0  0  0  0  0  0  0
    2.7050    3.7733    1.5320 C   0  0  0  0  0  0  0  0  0  0  0  0
    1.5750    3.2148    2.0509 C   0  0  0  0  0  0  0  0  0  0  0  0
    1.1959    1.9031    1.7632 C   0  0  0  0  0  0  0  0  0  0  0  0
    1.9518    1.1182    0.9375 C   0  0  0  0  0  0  0  0  0  0  0  0
    3.0916    1.6825    0.4120 C   0  0  0  0  0  0  0  0  0  0  0  0
    3.4877    2.9886    0.6884 C   0  0  0  0  0  0  0  0  0  0  0  0
    2.4098    5.8738    2.5379 O   0  0  0  0  0  0  0  0  0  0  0  0
    4.2801    5.6419    1.2664 O   0  0  0  0  0  0  0  0  0  0  0  0
    0.2166   -0.4833    0.4208 N   0  0  0  0  0  0  0  0  0  0  0  0
    1.5962   -0.2782    0.6185 C   0  0  1  0  0  0  0  0  0  0  0  0
    2.4913   -0.8309   -0.4482 C   0  0  0  0  0  0  0  0  0  0  0  0
    2.0491   -2.0893   -1.0713 C   0  0  2  0  0  0  0  0  0  0  0  0
    0.7016   -2.5794   -0.7462 C   0  0  0  0  0  0  0  0  0  0  0  0
   -0.1187   -1.8319    0.2344 C   0  0  0  0  0  0  0  0  0  0  0  0
   -0.5324    0.4840   -0.2545 C   0  0  0  0  0  0  0  0  0  0  0  0
   -4.3000   -0.1557    2.4982 N   0  0  0  0  0  0  0  0  0  0  0  0
   -3.1551   -0.2854    3.1805 C   0  0  0  0  0  0  0  0  0  0  0  0
   -2.0910   -0.1452    2.3140 C   0  0  0  0  0  0  0  0  0  0  0  0
   -2.6173    0.0827    1.0577 C   0  0  0  0  0  0  0  0  0  0  0  0
   -1.9967    0.2709   -0.1913 C   0  0  0  0  0  0  0  0  0  0  0  0
   -2.8488    0.4337   -1.2754 C   0  0  0  0  0  0  0  0  0  0  0  0
   -4.2175    0.4148   -1.1062 C   0  0  0  0  0  0  0  0  0  0  0  0
   -4.8111    0.2328    0.1355 C   0  0  0  0  0  0  0  0  0  0  0  0
   -3.9891    0.0687    1.2034 C   0  0  0  0  0  0  0  0  0  0  0  0
   -6.2997    0.2390    0.2942 C   0  0  0  0  0  0  0  0  0  0  0  0
   -2.3208    0.6120   -2.5247 O   0  0  0  0  0  0  0  0  0  0  0  0
   -3.1740    0.7836   -3.6339 C   0  0  0  0  0  0  0  0  0  0  0  0
    2.9754   -3.1098   -0.7567 O   0  0  0  0  0  0  0  0  0  0  0  0
    3.6722   -3.5595   -1.8657 C   0  0  0  0  0  0  0  0  0  0  0  0
    4.6113   -4.6612   -1.4631 C   0  0  0  0  0  0  0  0  0  0  0  0
  1  2  1  0
  2  3  2  0
  3  4  1  0
  4  5  2  0
  5  6  1  0
  6  7  2  0
  2  7  1  0
  1  8  2  0
  1  9  1  0
 10 11  1  0
 11 12  1  6
 12 13  1  0
 13 14  1  0
 14 15  1  0
 10 15  1  0
 17 18  1  0
 18 19  2  0
 19 20  1  0
 20 21  2  0
 21 22  1  0
 22 23  2  0
 23 24  1  0
 24 25  2  0
 17 25  1  0
 20 25  1  0
 24 26  1  0
 27 28  1  0
 22 27  1  0
 16 21  1  0
 10 16  1  0
 30 31  1  0
 29 30  1  0
 13 29  1  1
 11  5  1  0
M  END
>  <molecule_name>  (24) 
IPTACOPAN

>  <target_name>  (24) 
Complement factor B

>  <organism>  (24) 
Homo sapiens

>  <chembl_id>  (24) 
CHEMBL4594448

>  <activity_info>  (24) 
IC50: 7.07|Kd: 8.10

>  <pACT>  (24) 
7.327500000000001

>  <ID>  (24) 
RENRQMCACQEWFC-UGKGYDQZSA-N

>  <conforer_id>  (24) 
conf49

$$$$
RENRQMCACQEWFC-UGKGYDQZSA-N
     RDKit          3D

 31 34  0  0  1  0  0  0  0  0999 V2000
    3.1112    5.1417    1.8089 C   0  0  0  0  0  0  0  0  0  0  0  0
    2.7050    3.7733    1.5320 C   0  0  0  0  0  0  0  0  0  0  0  0
    1.5750    3.2148    2.0509 C   0  0  0  0  0  0  0  0  0  0  0  0
    1.1959    1.9031    1.7632 C   0  0  0  0  0  0  0  0  0  0  0  0
    1.9518    1.1182    0.9375 C   0  0  0  0  0  0  0  0  0  0  0  0
    3.0916    1.6825    0.4120 C   0  0  0  0  0  0  0  0  0  0  0  0
    3.4877    2.9886    0.6884 C   0  0  0  0  0  0  0  0  0  0  0  0
    2.4098    5.8738    2.5379 O   0  0  0  0  0  0  0  0  0  0  0  0
    4.2801    5.6419    1.2664 O   0  0  0  0  0  0  0  0  0  0  0  0
    0.2166   -0.4833    0.4208 N   0  0  0  0  0  0  0  0  0  0  0  0
    1.5962   -0.2782    0.6185 C   0  0  1  0  0  0  0  0  0  0  0  0
    2.4913   -0.8309   -0.4482 C   0  0  0  0  0  0  0  0  0  0  0  0
    2.0491   -2.0893   -1.0713 C   0  0  2  0  0  0  0  0  0  0  0  0
    0.7016   -2.5794   -0.7462 C   0  0  0  0  0  0  0  0  0  0  0  0
   -0.1187   -1.8319    0.2344 C   0  0  0  0  0  0  0  0  0  0  0  0
   -0.5324    0.4840   -0.2545 C   0  0  0  0  0  0  0  0  0  0  0  0
   -4.3000   -0.1557    2.4982 N   0  0  0  0  0  0  0  0  0  0  0  0
   -3.1551   -0.2854    3.1805 C   0  0  0  0  0  0  0  0  0  0  0  0
   -2.0910   -0.1452    2.3140 C   0  0  0  0  0  0  0  0  0  0  0  0
   -2.6173    0.0827    1.0577 C   0  0  0  0  0  0  0  0  0  0  0  0
   -1.9967    0.2709   -0.1913 C   0  0  0  0  0  0  0  0  0  0  0  0
   -2.8488    0.4337   -1.2754 C   0  0  0  0  0  0  0  0  0  0  0  0
   -4.2175    0.4148   -1.1062 C   0  0  0  0  0  0  0  0  0  0  0  0
   -4.8111    0.2328    0.1355 C   0  0  0  0  0  0  0  0  0  0  0  0
   -3.9891    0.0687    1.2034 C   0  0  0  0  0  0  0  0  0  0  0  0
   -6.2997    0.2390    0.2942 C   0  0  0  0  0  0  0  0  0  0  0  0
   -2.3208    0.6120   -2.5247 O   0  0  0  0  0  0  0  0  0  0  0  0
   -3.1740    0.7836   -3.6339 C   0  0  0  0  0  0  0  0  0  0  0  0
    2.9754   -3.1098   -0.7567 O   0  0  0  0  0  0  0  0  0  0  0  0
    3.6722   -3.5595   -1.8657 C   0  0  0  0  0  0  0  0  0  0  0  0
    4.6113   -4.6612   -1.4631 C   0  0  0  0  0  0  0  0  0  0  0  0
  1  2  1  0
  2  3  2  0
  3  4  1  0
  4  5  2  0
  5  6  1  0
  6  7  2  0
  2  7  1  0
  1  8  2  0
  1  9  1  0
 10 11  1  0
 11 12  1  6
 12 13  1  0
 13 14  1  0
 14 15  1  0
 10 15  1  0
 17 18  1  0
 18 19  2  0
 19 20  1  0
 20 21  2  0
 21 22  1  0
 22 23  2  0
 23 24  1  0
 24 25  2  0
 17 25  1  0
 20 25  1  0
 24 26  1  0
 27 28  1  0
 22 27  1  0
 16 21  1  0
 10 16  1  0
 30 31  1  0
 29 30  1  0
 13 29  1  1
 11  5  1  0
M  END
>  <molecule_name>  (25) 
IPTACOPAN

>  <target_name>  (25) 
Complement factor B

>  <organism>  (25) 
Homo sapiens

>  <chembl_id>  (25) 
CHEMBL4594448

>  <activity_info>  (25) 
IC50: 7.07|Kd: 8.10

>  <pACT>  (25) 
7.327500000000001

>  <ID>  (25) 
RENRQMCACQEWFC-UGKGYDQZSA-N

>  <conforer_id>  (25) 
conf49

$$$$
RENRQMCACQEWFC-UGKGYDQZSA-N
     RDKit          3D

 31 34  0  0  1  0  0  0  0  0999 V2000
    3.1112    5.1417    1.8089 C   0  0  0  0  0  0  0  0  0  0  0  0
    2.7050    3.7733    1.5320 C   0  0  0  0  0  0  0  0  0  0  0  0
    1.5750    3.2148    2.0509 C   0  0  0  0  0  0  0  0  0  0  0  0
    1.1959    1.9031    1.7632 C   0  0  0  0  0  0  0  0  0  0  0  0
    1.9518    1.1182    0.9375 C   0  0  0  0  0  0  0  0  0  0  0  0
    3.0916    1.6825    0.4120 C   0  0  0  0  0  0  0  0  0  0  0  0
    3.4877    2.9886    0.6884 C   0  0  0  0  0  0  0  0  0  0  0  0
    2.4098    5.8738    2.5379 O   0  0  0  0  0  0  0  0  0  0  0  0
    4.2801    5.6419    1.2664 O   0  0  0  0  0  0  0  0  0  0  0  0
    0.2166   -0.4833    0.4208 N   0  0  0  0  0  0  0  0  0  0  0  0
    1.5962   -0.2782    0.6185 C   0  0  1  0  0  0  0  0  0  0  0  0
    2.4913   -0.8309   -0.4482 C   0  0  0  0  0  0  0  0  0  0  0  0
    2.0491   -2.0893   -1.0713 C   0  0  2  0  0  0  0  0  0  0  0  0
    0.7016   -2.5794   -0.7462 C   0  0  0  0  0  0  0  0  0  0  0  0
   -0.1187   -1.8319    0.2344 C   0  0  0  0  0  0  0  0  0  0  0  0
   -0.5324    0.4840   -0.2545 C   0  0  0  0  0  0  0  0  0  0  0  0
   -4.3000   -0.1557    2.4982 N   0  0  0  0  0  0  0  0  0  0  0  0
   -3.1551   -0.2854    3.1805 C   0  0  0  0  0  0  0  0  0  0  0  0
   -2.0910   -0.1452    2.3140 C   0  0  0  0  0  0  0  0  0  0  0  0
   -2.6173    0.0827    1.0577 C   0  0  0  0  0  0  0  0  0  0  0  0
   -1.9967    0.2709   -0.1913 C   0  0  0  0  0  0  0  0  0  0  0  0
   -2.8488    0.4337   -1.2754 C   0  0  0  0  0  0  0  0  0  0  0  0
   -4.2175    0.4148   -1.1062 C   0  0  0  0  0  0  0  0  0  0  0  0
   -4.8111    0.2328    0.1355 C   0  0  0  0  0  0  0  0  0  0  0  0
   -3.9891    0.0687    1.2034 C   0  0  0  0  0  0  0  0  0  0  0  0
   -6.2997    0.2390    0.2942 C   0  0  0  0  0  0  0  0  0  0  0  0
   -2.3208    0.6120   -2.5247 O   0  0  0  0  0  0  0  0  0  0  0  0
   -3.1740    0.7836   -3.6339 C   0  0  0  0  0  0  0  0  0  0  0  0
    2.9754   -3.1098   -0.7567 O   0  0  0  0  0  0  0  0  0  0  0  0
    3.6722   -3.5595   -1.8657 C   0  0  0  0  0  0  0  0  0  0  0  0
    4.6113   -4.6612   -1.4631 C   0  0  0  0  0  0  0  0  0  0  0  0
  1  2  1  0
  2  3  2  0
  3  4  1  0
  4  5  2  0
  5  6  1  0
  6  7  2  0
  2  7  1  0
  1  8  2  0
  1  9  1  0
 10 11  1  0
 11 12  1  6
 12 13  1  0
 13 14  1  0
 14 15  1  0
 10 15  1  0
 17 18  1  0
 18 19  2  0
 19 20  1  0
 20 21  2  0
 21 22  1  0
 22 23  2  0
 23 24  1  0
 24 25  2  0
 17 25  1  0
 20 25  1  0
 24 26  1  0
 27 28  1  0
 22 27  1  0
 16 21  1  0
 10 16  1  0
 30 31  1  0
 29 30  1  0
 13 29  1  1
 11  5  1  0
M  END
>  <molecule_name>  (26) 
IPTACOPAN

>  <target_name>  (26) 
Complement factor B

>  <organism>  (26) 
Homo sapiens

>  <chembl_id>  (26) 
CHEMBL4594448

>  <activity_info>  (26) 
IC50: 7.07|Kd: 8.10

>  <pACT>  (26) 
7.327500000000001

>  <ID>  (26) 
RENRQMCACQEWFC-UGKGYDQZSA-N

>  <conforer_id>  (26) 
conf49

$$$$
RENRQMCACQEWFC-UGKGYDQZSA-N
     RDKit          3D

 31 34  0  0  1  0  0  0  0  0999 V2000
    3.1112    5.1417    1.8089 C   0  0  0  0  0  0  0  0  0  0  0  0
    2.7050    3.7733    1.5320 C   0  0  0  0  0  0  0  0  0  0  0  0
    1.5750    3.2148    2.0509 C   0  0  0  0  0  0  0  0  0  0  0  0
    1.1959    1.9031    1.7632 C   0  0  0  0  0  0  0  0  0  0  0  0
    1.9518    1.1182    0.9375 C   0  0  0  0  0  0  0  0  0  0  0  0
    3.0916    1.6825    0.4120 C   0  0  0  0  0  0  0  0  0  0  0  0
    3.4877    2.9886    0.6884 C   0  0  0  0  0  0  0  0  0  0  0  0
    2.4098    5.8738    2.5379 O   0  0  0  0  0  0  0  0  0  0  0  0
    4.2801    5.6419    1.2664 O   0  0  0  0  0  0  0  0  0  0  0  0
    0.2166   -0.4833    0.4208 N   0  0  0  0  0  0  0  0  0  0  0  0
    1.5962   -0.2782    0.6185 C   0  0  1  0  0  0  0  0  0  0  0  0
    2.4913   -0.8309   -0.4482 C   0  0  0  0  0  0  0  0  0  0  0  0
    2.0491   -2.0893   -1.0713 C   0  0  2  0  0  0  0  0  0  0  0  0
    0.7016   -2.5794   -0.7462 C   0  0  0  0  0  0  0  0  0  0  0  0
   -0.1187   -1.8319    0.2344 C   0  0  0  0  0  0  0  0  0  0  0  0
   -0.5324    0.4840   -0.2545 C   0  0  0  0  0  0  0  0  0  0  0  0
   -4.3000   -0.1557    2.4982 N   0  0  0  0  0  0  0  0  0  0  0  0
   -3.1551   -0.2854    3.1805 C   0  0  0  0  0  0  0  0  0  0  0  0
   -2.0910   -0.1452    2.3140 C   0  0  0  0  0  0  0  0  0  0  0  0
   -2.6173    0.0827    1.0577 C   0  0  0  0  0  0  0  0  0  0  0  0
   -1.9967    0.2709   -0.1913 C   0  0  0  0  0  0  0  0  0  0  0  0
   -2.8488    0.4337   -1.2754 C   0  0  0  0  0  0  0  0  0  0  0  0
   -4.2175    0.4148   -1.1062 C   0  0  0  0  0  0  0  0  0  0  0  0
   -4.8111    0.2328    0.1355 C   0  0  0  0  0  0  0  0  0  0  0  0
   -3.9891    0.0687    1.2034 C   0  0  0  0  0  0  0  0  0  0  0  0
   -6.2997    0.2390    0.2942 C   0  0  0  0  0  0  0  0  0  0  0  0
   -2.3208    0.6120   -2.5247 O   0  0  0  0  0  0  0  0  0  0  0  0
   -3.1740    0.7836   -3.6339 C   0  0  0  0  0  0  0  0  0  0  0  0
    2.9754   -3.1098   -0.7567 O   0  0  0  0  0  0  0  0  0  0  0  0
    3.6722   -3.5595   -1.8657 C   0  0  0  0  0  0  0  0  0  0  0  0
    4.6113   -4.6612   -1.4631 C   0  0  0  0  0  0  0  0  0  0  0  0
  1  2  1  0
  2  3  2  0
  3  4  1  0
  4  5  2  0
  5  6  1  0
  6  7  2  0
  2  7  1  0
  1  8  2  0
  1  9  1  0
 10 11  1  0
 11 12  1  6
 12 13  1  0
 13 14  1  0
 14 15  1  0
 10 15  1  0
 17 18  1  0
 18 19  2  0
 19 20  1  0
 20 21  2  0
 21 22  1  0
 22 23  2  0
 23 24  1  0
 24 25  2  0
 17 25  1  0
 20 25  1  0
 24 26  1  0
 27 28  1  0
 22 27  1  0
 16 21  1  0
 10 16  1  0
 30 31  1  0
 29 30  1  0
 13 29  1  1
 11  5  1  0
M  END
>  <molecule_name>  (27) 
IPTACOPAN

>  <target_name>  (27) 
Complement factor B

>  <organism>  (27) 
Homo sapiens

>  <chembl_id>  (27) 
CHEMBL4594448

>  <activity_info>  (27) 
IC50: 7.07|Kd: 8.10

>  <pACT>  (27) 
7.327500000000001

>  <ID>  (27) 
RENRQMCACQEWFC-UGKGYDQZSA-N

>  <conforer_id>  (27) 
conf49

$$$$
RENRQMCACQEWFC-UGKGYDQZSA-N
     RDKit          3D

 31 34  0  0  1  0  0  0  0  0999 V2000
    3.1112    5.1417    1.8089 C   0  0  0  0  0  0  0  0  0  0  0  0
    2.7050    3.7733    1.5320 C   0  0  0  0  0  0  0  0  0  0  0  0
    1.5750    3.2148    2.0509 C   0  0  0  0  0  0  0  0  0  0  0  0
    1.1959    1.9031    1.7632 C   0  0  0  0  0  0  0  0  0  0  0  0
    1.9518    1.1182    0.9375 C   0  0  0  0  0  0  0  0  0  0  0  0
    3.0916    1.6825    0.4120 C   0  0  0  0  0  0  0  0  0  0  0  0
    3.4877    2.9886    0.6884 C   0  0  0  0  0  0  0  0  0  0  0  0
    2.4098    5.8738    2.5379 O   0  0  0  0  0  0  0  0  0  0  0  0
    4.2801    5.6419    1.2664 O   0  0  0  0  0  0  0  0  0  0  0  0
    0.2166   -0.4833    0.4208 N   0  0  0  0  0  0  0  0  0  0  0  0
    1.5962   -0.2782    0.6185 C   0  0  1  0  0  0  0  0  0  0  0  0
    2.4913   -0.8309   -0.4482 C   0  0  0  0  0  0  0  0  0  0  0  0
    2.0491   -2.0893   -1.0713 C   0  0  2  0  0  0  0  0  0  0  0  0
    0.7016   -2.5794   -0.7462 C   0  0  0  0  0  0  0  0  0  0  0  0
   -0.1187   -1.8319    0.2344 C   0  0  0  0  0  0  0  0  0  0  0  0
   -0.5324    0.4840   -0.2545 C   0  0  0  0  0  0  0  0  0  0  0  0
   -4.3000   -0.1557    2.4982 N   0  0  0  0  0  0  0  0  0  0  0  0
   -3.1551   -0.2854    3.1805 C   0  0  0  0  0  0  0  0  0  0  0  0
   -2.0910   -0.1452    2.3140 C   0  0  0  0  0  0  0  0  0  0  0  0
   -2.6173    0.0827    1.0577 C   0  0  0  0  0  0  0  0  0  0  0  0
   -1.9967    0.2709   -0.1913 C   0  0  0  0  0  0  0  0  0  0  0  0
   -2.8488    0.4337   -1.2754 C   0  0  0  0  0  0  0  0  0  0  0  0
   -4.2175    0.4148   -1.1062 C   0  0  0  0  0  0  0  0  0  0  0  0
   -4.8111    0.2328    0.1355 C   0  0  0  0  0  0  0  0  0  0  0  0
   -3.9891    0.0687    1.2034 C   0  0  0  0  0  0  0  0  0  0  0  0
   -6.2997    0.2390    0.2942 C   0  0  0  0  0  0  0  0  0  0  0  0
   -2.3208    0.6120   -2.5247 O   0  0  0  0  0  0  0  0  0  0  0  0
   -3.1740    0.7836   -3.6339 C   0  0  0  0  0  0  0  0  0  0  0  0
    2.9754   -3.1098   -0.7567 O   0  0  0  0  0  0  0  0  0  0  0  0
    3.6722   -3.5595   -1.8657 C   0  0  0  0  0  0  0  0  0  0  0  0
    4.6113   -4.6612   -1.4631 C   0  0  0  0  0  0  0  0  0  0  0  0
  1  2  1  0
  2  3  2  0
  3  4  1  0
  4  5  2  0
  5  6  1  0
  6  7  2  0
  2  7  1  0
  1  8  2  0
  1  9  1  0
 10 11  1  0
 11 12  1  6
 12 13  1  0
 13 14  1  0
 14 15  1  0
 10 15  1  0
 17 18  1  0
 18 19  2  0
 19 20  1  0
 20 21  2  0
 21 22  1  0
 22 23  2  0
 23 24  1  0
 24 25  2  0
 17 25  1  0
 20 25  1  0
 24 26  1  0
 27 28  1  0
 22 27  1  0
 16 21  1  0
 10 16  1  0
 30 31  1  0
 29 30  1  0
 13 29  1  1
 11  5  1  0
M  END
>  <molecule_name>  (28) 
IPTACOPAN

>  <target_name>  (28) 
Complement factor B

>  <organism>  (28) 
Homo sapiens

>  <chembl_id>  (28) 
CHEMBL4594448

>  <activity_info>  (28) 
IC50: 7.07|Kd: 8.10

>  <pACT>  (28) 
7.327500000000001

>  <ID>  (28) 
RENRQMCACQEWFC-UGKGYDQZSA-N

>  <conforer_id>  (28) 
conf49

$$$$
RENRQMCACQEWFC-UGKGYDQZSA-N
     RDKit          3D

 31 34  0  0  1  0  0  0  0  0999 V2000
    3.1112    5.1417    1.8089 C   0  0  0  0  0  0  0  0  0  0  0  0
    2.7050    3.7733    1.5320 C   0  0  0  0  0  0  0  0  0  0  0  0
    1.5750    3.2148    2.0509 C   0  0  0  0  0  0  0  0  0  0  0  0
    1.1959    1.9031    1.7632 C   0  0  0  0  0  0  0  0  0  0  0  0
    1.9518    1.1182    0.9375 C   0  0  0  0  0  0  0  0  0  0  0  0
    3.0916    1.6825    0.4120 C   0  0  0  0  0  0  0  0  0  0  0  0
    3.4877    2.9886    0.6884 C   0  0  0  0  0  0  0  0  0  0  0  0
    2.4098    5.8738    2.5379 O   0  0  0  0  0  0  0  0  0  0  0  0
    4.2801    5.6419    1.2664 O   0  0  0  0  0  0  0  0  0  0  0  0
    0.2166   -0.4833    0.4208 N   0  0  0  0  0  0  0  0  0  0  0  0
    1.5962   -0.2782    0.6185 C   0  0  1  0  0  0  0  0  0  0  0  0
    2.4913   -0.8309   -0.4482 C   0  0  0  0  0  0  0  0  0  0  0  0
    2.0491   -2.0893   -1.0713 C   0  0  2  0  0  0  0  0  0  0  0  0
    0.7016   -2.5794   -0.7462 C   0  0  0  0  0  0  0  0  0  0  0  0
   -0.1187   -1.8319    0.2344 C   0  0  0  0  0  0  0  0  0  0  0  0
   -0.5324    0.4840   -0.2545 C   0  0  0  0  0  0  0  0  0  0  0  0
   -4.3000   -0.1557    2.4982 N   0  0  0  0  0  0  0  0  0  0  0  0
   -3.1551   -0.2854    3.1805 C   0  0  0  0  0  0  0  0  0  0  0  0
   -2.0910   -0.1452    2.3140 C   0  0  0  0  0  0  0  0  0  0  0  0
   -2.6173    0.0827    1.0577 C   0  0  0  0  0  0  0  0  0  0  0  0
   -1.9967    0.2709   -0.1913 C   0  0  0  0  0  0  0  0  0  0  0  0
   -2.8488    0.4337   -1.2754 C   0  0  0  0  0  0  0  0  0  0  0  0
   -4.2175    0.4148   -1.1062 C   0  0  0  0  0  0  0  0  0  0  0  0
   -4.8111    0.2328    0.1355 C   0  0  0  0  0  0  0  0  0  0  0  0
   -3.9891    0.0687    1.2034 C   0  0  0  0  0  0  0  0  0  0  0  0
   -6.2997    0.2390    0.2942 C   0  0  0  0  0  0  0  0  0  0  0  0
   -2.3208    0.6120   -2.5247 O   0  0  0  0  0  0  0  0  0  0  0  0
   -3.1740    0.7836   -3.6339 C   0  0  0  0  0  0  0  0  0  0  0  0
    2.9754   -3.1098   -0.7567 O   0  0  0  0  0  0  0  0  0  0  0  0
    3.6722   -3.5595   -1.8657 C   0  0  0  0  0  0  0  0  0  0  0  0
    4.6113   -4.6612   -1.4631 C   0  0  0  0  0  0  0  0  0  0  0  0
  1  2  1  0
  2  3  2  0
  3  4  1  0
  4  5  2  0
  5  6  1  0
  6  7  2  0
  2  7  1  0
  1  8  2  0
  1  9  1  0
 10 11  1  0
 11 12  1  6
 12 13  1  0
 13 14  1  0
 14 15  1  0
 10 15  1  0
 17 18  1  0
 18 19  2  0
 19 20  1  0
 20 21  2  0
 21 22  1  0
 22 23  2  0
 23 24  1  0
 24 25  2  0
 17 25  1  0
 20 25  1  0
 24 26  1  0
 27 28  1  0
 22 27  1  0
 16 21  1  0
 10 16  1  0
 30 31  1  0
 29 30  1  0
 13 29  1  1
 11  5  1  0
M  END
>  <molecule_name>  (29) 
IPTACOPAN

>  <target_name>  (29) 
Complement factor B

>  <organism>  (29) 
Homo sapiens

>  <chembl_id>  (29) 
CHEMBL4594448

>  <activity_info>  (29) 
IC50: 7.07|Kd: 8.10

>  <pACT>  (29) 
7.327500000000001

>  <ID>  (29) 
RENRQMCACQEWFC-UGKGYDQZSA-N

>  <conforer_id>  (29) 
conf49

$$$$
RENRQMCACQEWFC-UGKGYDQZSA-N
     RDKit          3D

 31 34  0  0  1  0  0  0  0  0999 V2000
    3.1112    5.1417    1.8089 C   0  0  0  0  0  0  0  0  0  0  0  0
    2.7050    3.7733    1.5320 C   0  0  0  0  0  0  0  0  0  0  0  0
    1.5750    3.2148    2.0509 C   0  0  0  0  0  0  0  0  0  0  0  0
    1.1959    1.9031    1.7632 C   0  0  0  0  0  0  0  0  0  0  0  0
    1.9518    1.1182    0.9375 C   0  0  0  0  0  0  0  0  0  0  0  0
    3.0916    1.6825    0.4120 C   0  0  0  0  0  0  0  0  0  0  0  0
    3.4877    2.9886    0.6884 C   0  0  0  0  0  0  0  0  0  0  0  0
    2.4098    5.8738    2.5379 O   0  0  0  0  0  0  0  0  0  0  0  0
    4.2801    5.6419    1.2664 O   0  0  0  0  0  0  0  0  0  0  0  0
    0.2166   -0.4833    0.4208 N   0  0  0  0  0  0  0  0  0  0  0  0
    1.5962   -0.2782    0.6185 C   0  0  1  0  0  0  0  0  0  0  0  0
    2.4913   -0.8309   -0.4482 C   0  0  0  0  0  0  0  0  0  0  0  0
    2.0491   -2.0893   -1.0713 C   0  0  2  0  0  0  0  0  0  0  0  0
    0.7016   -2.5794   -0.7462 C   0  0  0  0  0  0  0  0  0  0  0  0
   -0.1187   -1.8319    0.2344 C   0  0  0  0  0  0  0  0  0  0  0  0
   -0.5324    0.4840   -0.2545 C   0  0  0  0  0  0  0  0  0  0  0  0
   -4.3000   -0.1557    2.4982 N   0  0  0  0  0  0  0  0  0  0  0  0
   -3.1551   -0.2854    3.1805 C   0  0  0  0  0  0  0  0  0  0  0  0
   -2.0910   -0.1452    2.3140 C   0  0  0  0  0  0  0  0  0  0  0  0
   -2.6173    0.0827    1.0577 C   0  0  0  0  0  0  0  0  0  0  0  0
   -1.9967    0.2709   -0.1913 C   0  0  0  0  0  0  0  0  0  0  0  0
   -2.8488    0.4337   -1.2754 C   0  0  0  0  0  0  0  0  0  0  0  0
   -4.2175    0.4148   -1.1062 C   0  0  0  0  0  0  0  0  0  0  0  0
   -4.8111    0.2328    0.1355 C   0  0  0  0  0  0  0  0  0  0  0  0
   -3.9891    0.0687    1.2034 C   0  0  0  0  0  0  0  0  0  0  0  0
   -6.2997    0.2390    0.2942 C   0  0  0  0  0  0  0  0  0  0  0  0
   -2.3208    0.6120   -2.5247 O   0  0  0  0  0  0  0  0  0  0  0  0
   -3.1740    0.7836   -3.6339 C   0  0  0  0  0  0  0  0  0  0  0  0
    2.9754   -3.1098   -0.7567 O   0  0  0  0  0  0  0  0  0  0  0  0
    3.6722   -3.5595   -1.8657 C   0  0  0  0  0  0  0  0  0  0  0  0
    4.6113   -4.6612   -1.4631 C   0  0  0  0  0  0  0  0  0  0  0  0
  1  2  1  0
  2  3  2  0
  3  4  1  0
  4  5  2  0
  5  6  1  0
  6  7  2  0
  2  7  1  0
  1  8  2  0
  1  9  1  0
 10 11  1  0
 11 12  1  6
 12 13  1  0
 13 14  1  0
 14 15  1  0
 10 15  1  0
 17 18  1  0
 18 19  2  0
 19 20  1  0
 20 21  2  0
 21 22  1  0
 22 23  2  0
 23 24  1  0
 24 25  2  0
 17 25  1  0
 20 25  1  0
 24 26  1  0
 27 28  1  0
 22 27  1  0
 16 21  1  0
 10 16  1  0
 30 31  1  0
 29 30  1  0
 13 29  1  1
 11  5  1  0
M  END
>  <molecule_name>  (30) 
IPTACOPAN

>  <target_name>  (30) 
Complement factor B

>  <organism>  (30) 
Homo sapiens

>  <chembl_id>  (30) 
CHEMBL4594448

>  <activity_info>  (30) 
IC50: 7.07|Kd: 8.10

>  <pACT>  (30) 
7.327500000000001

>  <ID>  (30) 
RENRQMCACQEWFC-UGKGYDQZSA-N

>  <conforer_id>  (30) 
conf49

$$$$
RENRQMCACQEWFC-UGKGYDQZSA-N
     RDKit          3D

 31 34  0  0  1  0  0  0  0  0999 V2000
    3.1112    5.1417    1.8089 C   0  0  0  0  0  0  0  0  0  0  0  0
    2.7050    3.7733    1.5320 C   0  0  0  0  0  0  0  0  0  0  0  0
    1.5750    3.2148    2.0509 C   0  0  0  0  0  0  0  0  0  0  0  0
    1.1959    1.9031    1.7632 C   0  0  0  0  0  0  0  0  0  0  0  0
    1.9518    1.1182    0.9375 C   0  0  0  0  0  0  0  0  0  0  0  0
    3.0916    1.6825    0.4120 C   0  0  0  0  0  0  0  0  0  0  0  0
    3.4877    2.9886    0.6884 C   0  0  0  0  0  0  0  0  0  0  0  0
    2.4098    5.8738    2.5379 O   0  0  0  0  0  0  0  0  0  0  0  0
    4.2801    5.6419    1.2664 O   0  0  0  0  0  0  0  0  0  0  0  0
    0.2166   -0.4833    0.4208 N   0  0  0  0  0  0  0  0  0  0  0  0
    1.5962   -0.2782    0.6185 C   0  0  1  0  0  0  0  0  0  0  0  0
    2.4913   -0.8309   -0.4482 C   0  0  0  0  0  0  0  0  0  0  0  0
    2.0491   -2.0893   -1.0713 C   0  0  2  0  0  0  0  0  0  0  0  0
    0.7016   -2.5794   -0.7462 C   0  0  0  0  0  0  0  0  0  0  0  0
   -0.1187   -1.8319    0.2344 C   0  0  0  0  0  0  0  0  0  0  0  0
   -0.5324    0.4840   -0.2545 C   0  0  0  0  0  0  0  0  0  0  0  0
   -4.3000   -0.1557    2.4982 N   0  0  0  0  0  0  0  0  0  0  0  0
   -3.1551   -0.2854    3.1805 C   0  0  0  0  0  0  0  0  0  0  0  0
   -2.0910   -0.1452    2.3140 C   0  0  0  0  0  0  0  0  0  0  0  0
   -2.6173    0.0827    1.0577 C   0  0  0  0  0  0  0  0  0  0  0  0
   -1.9967    0.2709   -0.1913 C   0  0  0  0  0  0  0  0  0  0  0  0
   -2.8488    0.4337   -1.2754 C   0  0  0  0  0  0  0  0  0  0  0  0
   -4.2175    0.4148   -1.1062 C   0  0  0  0  0  0  0  0  0  0  0  0
   -4.8111    0.2328    0.1355 C   0  0  0  0  0  0  0  0  0  0  0  0
   -3.9891    0.0687    1.2034 C   0  0  0  0  0  0  0  0  0  0  0  0
   -6.2997    0.2390    0.2942 C   0  0  0  0  0  0  0  0  0  0  0  0
   -2.3208    0.6120   -2.5247 O   0  0  0  0  0  0  0  0  0  0  0  0
   -3.1740    0.7836   -3.6339 C   0  0  0  0  0  0  0  0  0  0  0  0
    2.9754   -3.1098   -0.7567 O   0  0  0  0  0  0  0  0  0  0  0  0
    3.6722   -3.5595   -1.8657 C   0  0  0  0  0  0  0  0  0  0  0  0
    4.6113   -4.6612   -1.4631 C   0  0  0  0  0  0  0  0  0  0  0  0
  1  2  1  0
  2  3  2  0
  3  4  1  0
  4  5  2  0
  5  6  1  0
  6  7  2  0
  2  7  1  0
  1  8  2  0
  1  9  1  0
 10 11  1  0
 11 12  1  6
 12 13  1  0
 13 14  1  0
 14 15  1  0
 10 15  1  0
 17 18  1  0
 18 19  2  0
 19 20  1  0
 20 21  2  0
 21 22  1  0
 22 23  2  0
 23 24  1  0
 24 25  2  0
 17 25  1  0
 20 25  1  0
 24 26  1  0
 27 28  1  0
 22 27  1  0
 16 21  1  0
 10 16  1  0
 30 31  1  0
 29 30  1  0
 13 29  1  1
 11  5  1  0
M  END
>  <molecule_name>  (31) 
IPTACOPAN

>  <target_name>  (31) 
Complement factor B

>  <organism>  (31) 
Homo sapiens

>  <chembl_id>  (31) 
CHEMBL4594448

>  <activity_info>  (31) 
IC50: 7.07|Kd: 8.10

>  <pACT>  (31) 
7.327500000000001

>  <ID>  (31) 
RENRQMCACQEWFC-UGKGYDQZSA-N

>  <conforer_id>  (31) 
conf49

$$$$
RENRQMCACQEWFC-UGKGYDQZSA-N
     RDKit          3D

 31 34  0  0  1  0  0  0  0  0999 V2000
    3.1112    5.1417    1.8089 C   0  0  0  0  0  0  0  0  0  0  0  0
    2.7050    3.7733    1.5320 C   0  0  0  0  0  0  0  0  0  0  0  0
    1.5750    3.2148    2.0509 C   0  0  0  0  0  0  0  0  0  0  0  0
    1.1959    1.9031    1.7632 C   0  0  0  0  0  0  0  0  0  0  0  0
    1.9518    1.1182    0.9375 C   0  0  0  0  0  0  0  0  0  0  0  0
    3.0916    1.6825    0.4120 C   0  0  0  0  0  0  0  0  0  0  0  0
    3.4877    2.9886    0.6884 C   0  0  0  0  0  0  0  0  0  0  0  0
    2.4098    5.8738    2.5379 O   0  0  0  0  0  0  0  0  0  0  0  0
    4.2801    5.6419    1.2664 O   0  0  0  0  0  0  0  0  0  0  0  0
    0.2166   -0.4833    0.4208 N   0  0  0  0  0  0  0  0  0  0  0  0
    1.5962   -0.2782    0.6185 C   0  0  1  0  0  0  0  0  0  0  0  0
    2.4913   -0.8309   -0.4482 C   0  0  0  0  0  0  0  0  0  0  0  0
    2.0491   -2.0893   -1.0713 C   0  0  2  0  0  0  0  0  0  0  0  0
    0.7016   -2.5794   -0.7462 C   0  0  0  0  0  0  0  0  0  0  0  0
   -0.1187   -1.8319    0.2344 C   0  0  0  0  0  0  0  0  0  0  0  0
   -0.5324    0.4840   -0.2545 C   0  0  0  0  0  0  0  0  0  0  0  0
   -4.3000   -0.1557    2.4982 N   0  0  0  0  0  0  0  0  0  0  0  0
   -3.1551   -0.2854    3.1805 C   0  0  0  0  0  0  0  0  0  0  0  0
   -2.0910   -0.1452    2.3140 C   0  0  0  0  0  0  0  0  0  0  0  0
   -2.6173    0.0827    1.0577 C   0  0  0  0  0  0  0  0  0  0  0  0
   -1.9967    0.2709   -0.1913 C   0  0  0  0  0  0  0  0  0  0  0  0
   -2.8488    0.4337   -1.2754 C   0  0  0  0  0  0  0  0  0  0  0  0
   -4.2175    0.4148   -1.1062 C   0  0  0  0  0  0  0  0  0  0  0  0
   -4.8111    0.2328    0.1355 C   0  0  0  0  0  0  0  0  0  0  0  0
   -3.9891    0.0687    1.2034 C   0  0  0  0  0  0  0  0  0  0  0  0
   -6.2997    0.2390    0.2942 C   0  0  0  0  0  0  0  0  0  0  0  0
   -2.3208    0.6120   -2.5247 O   0  0  0  0  0  0  0  0  0  0  0  0
   -3.1740    0.7836   -3.6339 C   0  0  0  0  0  0  0  0  0  0  0  0
    2.9754   -3.1098   -0.7567 O   0  0  0  0  0  0  0  0  0  0  0  0
    3.6722   -3.5595   -1.8657 C   0  0  0  0  0  0  0  0  0  0  0  0
    4.6113   -4.6612   -1.4631 C   0  0  0  0  0  0  0  0  0  0  0  0
  1  2  1  0
  2  3  2  0
  3  4  1  0
  4  5  2  0
  5  6  1  0
  6  7  2  0
  2  7  1  0
  1  8  2  0
  1  9  1  0
 10 11  1  0
 11 12  1  6
 12 13  1  0
 13 14  1  0
 14 15  1  0
 10 15  1  0
 17 18  1  0
 18 19  2  0
 19 20  1  0
 20 21  2  0
 21 22  1  0
 22 23  2  0
 23 24  1  0
 24 25  2  0
 17 25  1  0
 20 25  1  0
 24 26  1  0
 27 28  1  0
 22 27  1  0
 16 21  1  0
 10 16  1  0
 30 31  1  0
 29 30  1  0
 13 29  1  1
 11  5  1  0
M  END
>  <molecule_name>  (32) 
IPTACOPAN

>  <target_name>  (32) 
Complement factor B

>  <organism>  (32) 
Homo sapiens

>  <chembl_id>  (32) 
CHEMBL4594448

>  <activity_info>  (32) 
IC50: 7.07|Kd: 8.10

>  <pACT>  (32) 
7.327500000000001

>  <ID>  (32) 
RENRQMCACQEWFC-UGKGYDQZSA-N

>  <conforer_id>  (32) 
conf49

$$$$
RENRQMCACQEWFC-UGKGYDQZSA-N
     RDKit          3D

 31 34  0  0  1  0  0  0  0  0999 V2000
    3.1112    5.1417    1.8089 C   0  0  0  0  0  0  0  0  0  0  0  0
    2.7050    3.7733    1.5320 C   0  0  0  0  0  0  0  0  0  0  0  0
    1.5750    3.2148    2.0509 C   0  0  0  0  0  0  0  0  0  0  0  0
    1.1959    1.9031    1.7632 C   0  0  0  0  0  0  0  0  0  0  0  0
    1.9518    1.1182    0.9375 C   0  0  0  0  0  0  0  0  0  0  0  0
    3.0916    1.6825    0.4120 C   0  0  0  0  0  0  0  0  0  0  0  0
    3.4877    2.9886    0.6884 C   0  0  0  0  0  0  0  0  0  0  0  0
    2.4098    5.8738    2.5379 O   0  0  0  0  0  0  0  0  0  0  0  0
    4.2801    5.6419    1.2664 O   0  0  0  0  0  0  0  0  0  0  0  0
    0.2166   -0.4833    0.4208 N   0  0  0  0  0  0  0  0  0  0  0  0
    1.5962   -0.2782    0.6185 C   0  0  1  0  0  0  0  0  0  0  0  0
    2.4913   -0.8309   -0.4482 C   0  0  0  0  0  0  0  0  0  0  0  0
    2.0491   -2.0893   -1.0713 C   0  0  2  0  0  0  0  0  0  0  0  0
    0.7016   -2.5794   -0.7462 C   0  0  0  0  0  0  0  0  0  0  0  0
   -0.1187   -1.8319    0.2344 C   0  0  0  0  0  0  0  0  0  0  0  0
   -0.5324    0.4840   -0.2545 C   0  0  0  0  0  0  0  0  0  0  0  0
   -4.3000   -0.1557    2.4982 N   0  0  0  0  0  0  0  0  0  0  0  0
   -3.1551   -0.2854    3.1805 C   0  0  0  0  0  0  0  0  0  0  0  0
   -2.0910   -0.1452    2.3140 C   0  0  0  0  0  0  0  0  0  0  0  0
   -2.6173    0.0827    1.0577 C   0  0  0  0  0  0  0  0  0  0  0  0
   -1.9967    0.2709   -0.1913 C   0  0  0  0  0  0  0  0  0  0  0  0
   -2.8488    0.4337   -1.2754 C   0  0  0  0  0  0  0  0  0  0  0  0
   -4.2175    0.4148   -1.1062 C   0  0  0  0  0  0  0  0  0  0  0  0
   -4.8111    0.2328    0.1355 C   0  0  0  0  0  0  0  0  0  0  0  0
   -3.9891    0.0687    1.2034 C   0  0  0  0  0  0  0  0  0  0  0  0
   -6.2997    0.2390    0.2942 C   0  0  0  0  0  0  0  0  0  0  0  0
   -2.3208    0.6120   -2.5247 O   0  0  0  0  0  0  0  0  0  0  0  0
   -3.1740    0.7836   -3.6339 C   0  0  0  0  0  0  0  0  0  0  0  0
    2.9754   -3.1098   -0.7567 O   0  0  0  0  0  0  0  0  0  0  0  0
    3.6722   -3.5595   -1.8657 C   0  0  0  0  0  0  0  0  0  0  0  0
    4.6113   -4.6612   -1.4631 C   0  0  0  0  0  0  0  0  0  0  0  0
  1  2  1  0
  2  3  2  0
  3  4  1  0
  4  5  2  0
  5  6  1  0
  6  7  2  0
  2  7  1  0
  1  8  2  0
  1  9  1  0
 10 11  1  0
 11 12  1  6
 12 13  1  0
 13 14  1  0
 14 15  1  0
 10 15  1  0
 17 18  1  0
 18 19  2  0
 19 20  1  0
 20 21  2  0
 21 22  1  0
 22 23  2  0
 23 24  1  0
 24 25  2  0
 17 25  1  0
 20 25  1  0
 24 26  1  0
 27 28  1  0
 22 27  1  0
 16 21  1  0
 10 16  1  0
 30 31  1  0
 29 30  1  0
 13 29  1  1
 11  5  1  0
M  END
>  <molecule_name>  (33) 
IPTACOPAN

>  <target_name>  (33) 
Complement factor B

>  <organism>  (33) 
Homo sapiens

>  <chembl_id>  (33) 
CHEMBL4594448

>  <activity_info>  (33) 
IC50: 7.07|Kd: 8.10

>  <pACT>  (33) 
7.327500000000001

>  <ID>  (33) 
RENRQMCACQEWFC-UGKGYDQZSA-N

>  <conforer_id>  (33) 
conf49

$$$$
RENRQMCACQEWFC-UGKGYDQZSA-N
     RDKit          3D

 31 34  0  0  1  0  0  0  0  0999 V2000
    3.1112    5.1417    1.8089 C   0  0  0  0  0  0  0  0  0  0  0  0
    2.7050    3.7733    1.5320 C   0  0  0  0  0  0  0  0  0  0  0  0
    1.5750    3.2148    2.0509 C   0  0  0  0  0  0  0  0  0  0  0  0
    1.1959    1.9031    1.7632 C   0  0  0  0  0  0  0  0  0  0  0  0
    1.9518    1.1182    0.9375 C   0  0  0  0  0  0  0  0  0  0  0  0
    3.0916    1.6825    0.4120 C   0  0  0  0  0  0  0  0  0  0  0  0
    3.4877    2.9886    0.6884 C   0  0  0  0  0  0  0  0  0  0  0  0
    2.4098    5.8738    2.5379 O   0  0  0  0  0  0  0  0  0  0  0  0
    4.2801    5.6419    1.2664 O   0  0  0  0  0  0  0  0  0  0  0  0
    0.2166   -0.4833    0.4208 N   0  0  0  0  0  0  0  0  0  0  0  0
    1.5962   -0.2782    0.6185 C   0  0  1  0  0  0  0  0  0  0  0  0
    2.4913   -0.8309   -0.4482 C   0  0  0  0  0  0  0  0  0  0  0  0
    2.0491   -2.0893   -1.0713 C   0  0  2  0  0  0  0  0  0  0  0  0
    0.7016   -2.5794   -0.7462 C   0  0  0  0  0  0  0  0  0  0  0  0
   -0.1187   -1.8319    0.2344 C   0  0  0  0  0  0  0  0  0  0  0  0
   -0.5324    0.4840   -0.2545 C   0  0  0  0  0  0  0  0  0  0  0  0
   -4.3000   -0.1557    2.4982 N   0  0  0  0  0  0  0  0  0  0  0  0
   -3.1551   -0.2854    3.1805 C   0  0  0  0  0  0  0  0  0  0  0  0
   -2.0910   -0.1452    2.3140 C   0  0  0  0  0  0  0  0  0  0  0  0
   -2.6173    0.0827    1.0577 C   0  0  0  0  0  0  0  0  0  0  0  0
   -1.9967    0.2709   -0.1913 C   0  0  0  0  0  0  0  0  0  0  0  0
   -2.8488    0.4337   -1.2754 C   0  0  0  0  0  0  0  0  0  0  0  0
   -4.2175    0.4148   -1.1062 C   0  0  0  0  0  0  0  0  0  0  0  0
   -4.8111    0.2328    0.1355 C   0  0  0  0  0  0  0  0  0  0  0  0
   -3.9891    0.0687    1.2034 C   0  0  0  0  0  0  0  0  0  0  0  0
   -6.2997    0.2390    0.2942 C   0  0  0  0  0  0  0  0  0  0  0  0
   -2.3208    0.6120   -2.5247 O   0  0  0  0  0  0  0  0  0  0  0  0
   -3.1740    0.7836   -3.6339 C   0  0  0  0  0  0  0  0  0  0  0  0
    2.9754   -3.1098   -0.7567 O   0  0  0  0  0  0  0  0  0  0  0  0
    3.6722   -3.5595   -1.8657 C   0  0  0  0  0  0  0  0  0  0  0  0
    4.6113   -4.6612   -1.4631 C   0  0  0  0  0  0  0  0  0  0  0  0
  1  2  1  0
  2  3  2  0
  3  4  1  0
  4  5  2  0
  5  6  1  0
  6  7  2  0
  2  7  1  0
  1  8  2  0
  1  9  1  0
 10 11  1  0
 11 12  1  6
 12 13  1  0
 13 14  1  0
 14 15  1  0
 10 15  1  0
 17 18  1  0
 18 19  2  0
 19 20  1  0
 20 21  2  0
 21 22  1  0
 22 23  2  0
 23 24  1  0
 24 25  2  0
 17 25  1  0
 20 25  1  0
 24 26  1  0
 27 28  1  0
 22 27  1  0
 16 21  1  0
 10 16  1  0
 30 31  1  0
 29 30  1  0
 13 29  1  1
 11  5  1  0
M  END
>  <molecule_name>  (34) 
IPTACOPAN

>  <target_name>  (34) 
Complement factor B

>  <organism>  (34) 
Homo sapiens

>  <chembl_id>  (34) 
CHEMBL4594448

>  <activity_info>  (34) 
IC50: 7.07|Kd: 8.10

>  <pACT>  (34) 
7.327500000000001

>  <ID>  (34) 
RENRQMCACQEWFC-UGKGYDQZSA-N

>  <conforer_id>  (34) 
conf49

$$$$
RENRQMCACQEWFC-UGKGYDQZSA-N
     RDKit          3D

 31 34  0  0  1  0  0  0  0  0999 V2000
    3.1112    5.1417    1.8089 C   0  0  0  0  0  0  0  0  0  0  0  0
    2.7050    3.7733    1.5320 C   0  0  0  0  0  0  0  0  0  0  0  0
    1.5750    3.2148    2.0509 C   0  0  0  0  0  0  0  0  0  0  0  0
    1.1959    1.9031    1.7632 C   0  0  0  0  0  0  0  0  0  0  0  0
    1.9518    1.1182    0.9375 C   0  0  0  0  0  0  0  0  0  0  0  0
    3.0916    1.6825    0.4120 C   0  0  0  0  0  0  0  0  0  0  0  0
    3.4877    2.9886    0.6884 C   0  0  0  0  0  0  0  0  0  0  0  0
    2.4098    5.8738    2.5379 O   0  0  0  0  0  0  0  0  0  0  0  0
    4.2801    5.6419    1.2664 O   0  0  0  0  0  0  0  0  0  0  0  0
    0.2166   -0.4833    0.4208 N   0  0  0  0  0  0  0  0  0  0  0  0
    1.5962   -0.2782    0.6185 C   0  0  1  0  0  0  0  0  0  0  0  0
    2.4913   -0.8309   -0.4482 C   0  0  0  0  0  0  0  0  0  0  0  0
    2.0491   -2.0893   -1.0713 C   0  0  2  0  0  0  0  0  0  0  0  0
    0.7016   -2.5794   -0.7462 C   0  0  0  0  0  0  0  0  0  0  0  0
   -0.1187   -1.8319    0.2344 C   0  0  0  0  0  0  0  0  0  0  0  0
   -0.5324    0.4840   -0.2545 C   0  0  0  0  0  0  0  0  0  0  0  0
   -4.3000   -0.1557    2.4982 N   0  0  0  0  0  0  0  0  0  0  0  0
   -3.1551   -0.2854    3.1805 C   0  0  0  0  0  0  0  0  0  0  0  0
   -2.0910   -0.1452    2.3140 C   0  0  0  0  0  0  0  0  0  0  0  0
   -2.6173    0.0827    1.0577 C   0  0  0  0  0  0  0  0  0  0  0  0
   -1.9967    0.2709   -0.1913 C   0  0  0  0  0  0  0  0  0  0  0  0
   -2.8488    0.4337   -1.2754 C   0  0  0  0  0  0  0  0  0  0  0  0
   -4.2175    0.4148   -1.1062 C   0  0  0  0  0  0  0  0  0  0  0  0
   -4.8111    0.2328    0.1355 C   0  0  0  0  0  0  0  0  0  0  0  0
   -3.9891    0.0687    1.2034 C   0  0  0  0  0  0  0  0  0  0  0  0
   -6.2997    0.2390    0.2942 C   0  0  0  0  0  0  0  0  0  0  0  0
   -2.3208    0.6120   -2.5247 O   0  0  0  0  0  0  0  0  0  0  0  0
   -3.1740    0.7836   -3.6339 C   0  0  0  0  0  0  0  0  0  0  0  0
    2.9754   -3.1098   -0.7567 O   0  0  0  0  0  0  0  0  0  0  0  0
    3.6722   -3.5595   -1.8657 C   0  0  0  0  0  0  0  0  0  0  0  0
    4.6113   -4.6612   -1.4631 C   0  0  0  0  0  0  0  0  0  0  0  0
  1  2  1  0
  2  3  2  0
  3  4  1  0
  4  5  2  0
  5  6  1  0
  6  7  2  0
  2  7  1  0
  1  8  2  0
  1  9  1  0
 10 11  1  0
 11 12  1  6
 12 13  1  0
 13 14  1  0
 14 15  1  0
 10 15  1  0
 17 18  1  0
 18 19  2  0
 19 20  1  0
 20 21  2  0
 21 22  1  0
 22 23  2  0
 23 24  1  0
 24 25  2  0
 17 25  1  0
 20 25  1  0
 24 26  1  0
 27 28  1  0
 22 27  1  0
 16 21  1  0
 10 16  1  0
 30 31  1  0
 29 30  1  0
 13 29  1  1
 11  5  1  0
M  END
>  <molecule_name>  (35) 
IPTACOPAN

>  <target_name>  (35) 
Complement factor B

>  <organism>  (35) 
Homo sapiens

>  <chembl_id>  (35) 
CHEMBL4594448

>  <activity_info>  (35) 
IC50: 7.07|Kd: 8.10

>  <pACT>  (35) 
7.327500000000001

>  <ID>  (35) 
RENRQMCACQEWFC-UGKGYDQZSA-N

>  <conforer_id>  (35) 
conf49

$$$$
RENRQMCACQEWFC-UGKGYDQZSA-N
     RDKit          3D

 31 34  0  0  1  0  0  0  0  0999 V2000
    3.1112    5.1417    1.8089 C   0  0  0  0  0  0  0  0  0  0  0  0
    2.7050    3.7733    1.5320 C   0  0  0  0  0  0  0  0  0  0  0  0
    1.5750    3.2148    2.0509 C   0  0  0  0  0  0  0  0  0  0  0  0
    1.1959    1.9031    1.7632 C   0  0  0  0  0  0  0  0  0  0  0  0
    1.9518    1.1182    0.9375 C   0  0  0  0  0  0  0  0  0  0  0  0
    3.0916    1.6825    0.4120 C   0  0  0  0  0  0  0  0  0  0  0  0
    3.4877    2.9886    0.6884 C   0  0  0  0  0  0  0  0  0  0  0  0
    2.4098    5.8738    2.5379 O   0  0  0  0  0  0  0  0  0  0  0  0
    4.2801    5.6419    1.2664 O   0  0  0  0  0  0  0  0  0  0  0  0
    0.2166   -0.4833    0.4208 N   0  0  0  0  0  0  0  0  0  0  0  0
    1.5962   -0.2782    0.6185 C   0  0  1  0  0  0  0  0  0  0  0  0
    2.4913   -0.8309   -0.4482 C   0  0  0  0  0  0  0  0  0  0  0  0
    2.0491   -2.0893   -1.0713 C   0  0  2  0  0  0  0  0  0  0  0  0
    0.7016   -2.5794   -0.7462 C   0  0  0  0  0  0  0  0  0  0  0  0
   -0.1187   -1.8319    0.2344 C   0  0  0  0  0  0  0  0  0  0  0  0
   -0.5324    0.4840   -0.2545 C   0  0  0  0  0  0  0  0  0  0  0  0
   -4.3000   -0.1557    2.4982 N   0  0  0  0  0  0  0  0  0  0  0  0
   -3.1551   -0.2854    3.1805 C   0  0  0  0  0  0  0  0  0  0  0  0
   -2.0910   -0.1452    2.3140 C   0  0  0  0  0  0  0  0  0  0  0  0
   -2.6173    0.0827    1.0577 C   0  0  0  0  0  0  0  0  0  0  0  0
   -1.9967    0.2709   -0.1913 C   0  0  0  0  0  0  0  0  0  0  0  0
   -2.8488    0.4337   -1.2754 C   0  0  0  0  0  0  0  0  0  0  0  0
   -4.2175    0.4148   -1.1062 C   0  0  0  0  0  0  0  0  0  0  0  0
   -4.8111    0.2328    0.1355 C   0  0  0  0  0  0  0  0  0  0  0  0
   -3.9891    0.0687    1.2034 C   0  0  0  0  0  0  0  0  0  0  0  0
   -6.2997    0.2390    0.2942 C   0  0  0  0  0  0  0  0  0  0  0  0
   -2.3208    0.6120   -2.5247 O   0  0  0  0  0  0  0  0  0  0  0  0
   -3.1740    0.7836   -3.6339 C   0  0  0  0  0  0  0  0  0  0  0  0
    2.9754   -3.1098   -0.7567 O   0  0  0  0  0  0  0  0  0  0  0  0
    3.6722   -3.5595   -1.8657 C   0  0  0  0  0  0  0  0  0  0  0  0
    4.6113   -4.6612   -1.4631 C   0  0  0  0  0  0  0  0  0  0  0  0
  1  2  1  0
  2  3  2  0
  3  4  1  0
  4  5  2  0
  5  6  1  0
  6  7  2  0
  2  7  1  0
  1  8  2  0
  1  9  1  0
 10 11  1  0
 11 12  1  6
 12 13  1  0
 13 14  1  0
 14 15  1  0
 10 15  1  0
 17 18  1  0
 18 19  2  0
 19 20  1  0
 20 21  2  0
 21 22  1  0
 22 23  2  0
 23 24  1  0
 24 25  2  0
 17 25  1  0
 20 25  1  0
 24 26  1  0
 27 28  1  0
 22 27  1  0
 16 21  1  0
 10 16  1  0
 30 31  1  0
 29 30  1  0
 13 29  1  1
 11  5  1  0
M  END
>  <molecule_name>  (36) 
IPTACOPAN

>  <target_name>  (36) 
Complement factor B

>  <organism>  (36) 
Homo sapiens

>  <chembl_id>  (36) 
CHEMBL4594448

>  <activity_info>  (36) 
IC50: 7.07|Kd: 8.10

>  <pACT>  (36) 
7.327500000000001

>  <ID>  (36) 
RENRQMCACQEWFC-UGKGYDQZSA-N

>  <conforer_id>  (36) 
conf49

$$$$
RENRQMCACQEWFC-UGKGYDQZSA-N
     RDKit          3D

 31 34  0  0  1  0  0  0  0  0999 V2000
    3.1112    5.1417    1.8089 C   0  0  0  0  0  0  0  0  0  0  0  0
    2.7050    3.7733    1.5320 C   0  0  0  0  0  0  0  0  0  0  0  0
    1.5750    3.2148    2.0509 C   0  0  0  0  0  0  0  0  0  0  0  0
    1.1959    1.9031    1.7632 C   0  0  0  0  0  0  0  0  0  0  0  0
    1.9518    1.1182    0.9375 C   0  0  0  0  0  0  0  0  0  0  0  0
    3.0916    1.6825    0.4120 C   0  0  0  0  0  0  0  0  0  0  0  0
    3.4877    2.9886    0.6884 C   0  0  0  0  0  0  0  0  0  0  0  0
    2.4098    5.8738    2.5379 O   0  0  0  0  0  0  0  0  0  0  0  0
    4.2801    5.6419    1.2664 O   0  0  0  0  0  0  0  0  0  0  0  0
    0.2166   -0.4833    0.4208 N   0  0  0  0  0  0  0  0  0  0  0  0
    1.5962   -0.2782    0.6185 C   0  0  1  0  0  0  0  0  0  0  0  0
    2.4913   -0.8309   -0.4482 C   0  0  0  0  0  0  0  0  0  0  0  0
    2.0491   -2.0893   -1.0713 C   0  0  2  0  0  0  0  0  0  0  0  0
    0.7016   -2.5794   -0.7462 C   0  0  0  0  0  0  0  0  0  0  0  0
   -0.1187   -1.8319    0.2344 C   0  0  0  0  0  0  0  0  0  0  0  0
   -0.5324    0.4840   -0.2545 C   0  0  0  0  0  0  0  0  0  0  0  0
   -4.3000   -0.1557    2.4982 N   0  0  0  0  0  0  0  0  0  0  0  0
   -3.1551   -0.2854    3.1805 C   0  0  0  0  0  0  0  0  0  0  0  0
   -2.0910   -0.1452    2.3140 C   0  0  0  0  0  0  0  0  0  0  0  0
   -2.6173    0.0827    1.0577 C   0  0  0  0  0  0  0  0  0  0  0  0
   -1.9967    0.2709   -0.1913 C   0  0  0  0  0  0  0  0  0  0  0  0
   -2.8488    0.4337   -1.2754 C   0  0  0  0  0  0  0  0  0  0  0  0
   -4.2175    0.4148   -1.1062 C   0  0  0  0  0  0  0  0  0  0  0  0
   -4.8111    0.2328    0.1355 C   0  0  0  0  0  0  0  0  0  0  0  0
   -3.9891    0.0687    1.2034 C   0  0  0  0  0  0  0  0  0  0  0  0
   -6.2997    0.2390    0.2942 C   0  0  0  0  0  0  0  0  0  0  0  0
   -2.3208    0.6120   -2.5247 O   0  0  0  0  0  0  0  0  0  0  0  0
   -3.1740    0.7836   -3.6339 C   0  0  0  0  0  0  0  0  0  0  0  0
    2.9754   -3.1098   -0.7567 O   0  0  0  0  0  0  0  0  0  0  0  0
    3.6722   -3.5595   -1.8657 C   0  0  0  0  0  0  0  0  0  0  0  0
    4.6113   -4.6612   -1.4631 C   0  0  0  0  0  0  0  0  0  0  0  0
  1  2  1  0
  2  3  2  0
  3  4  1  0
  4  5  2  0
  5  6  1  0
  6  7  2  0
  2  7  1  0
  1  8  2  0
  1  9  1  0
 10 11  1  0
 11 12  1  6
 12 13  1  0
 13 14  1  0
 14 15  1  0
 10 15  1  0
 17 18  1  0
 18 19  2  0
 19 20  1  0
 20 21  2  0
 21 22  1  0
 22 23  2  0
 23 24  1  0
 24 25  2  0
 17 25  1  0
 20 25  1  0
 24 26  1  0
 27 28  1  0
 22 27  1  0
 16 21  1  0
 10 16  1  0
 30 31  1  0
 29 30  1  0
 13 29  1  1
 11  5  1  0
M  END
>  <molecule_name>  (37) 
IPTACOPAN

>  <target_name>  (37) 
Complement factor B

>  <organism>  (37) 
Homo sapiens

>  <chembl_id>  (37) 
CHEMBL4594448

>  <activity_info>  (37) 
IC50: 7.07|Kd: 8.10

>  <pACT>  (37) 
7.327500000000001

>  <ID>  (37) 
RENRQMCACQEWFC-UGKGYDQZSA-N

>  <conforer_id>  (37) 
conf49

$$$$
RENRQMCACQEWFC-UGKGYDQZSA-N
     RDKit          3D

 31 34  0  0  1  0  0  0  0  0999 V2000
    3.1112    5.1417    1.8089 C   0  0  0  0  0  0  0  0  0  0  0  0
    2.7050    3.7733    1.5320 C   0  0  0  0  0  0  0  0  0  0  0  0
    1.5750    3.2148    2.0509 C   0  0  0  0  0  0  0  0  0  0  0  0
    1.1959    1.9031    1.7632 C   0  0  0  0  0  0  0  0  0  0  0  0
    1.9518    1.1182    0.9375 C   0  0  0  0  0  0  0  0  0  0  0  0
    3.0916    1.6825    0.4120 C   0  0  0  0  0  0  0  0  0  0  0  0
    3.4877    2.9886    0.6884 C   0  0  0  0  0  0  0  0  0  0  0  0
    2.4098    5.8738    2.5379 O   0  0  0  0  0  0  0  0  0  0  0  0
    4.2801    5.6419    1.2664 O   0  0  0  0  0  0  0  0  0  0  0  0
    0.2166   -0.4833    0.4208 N   0  0  0  0  0  0  0  0  0  0  0  0
    1.5962   -0.2782    0.6185 C   0  0  1  0  0  0  0  0  0  0  0  0
    2.4913   -0.8309   -0.4482 C   0  0  0  0  0  0  0  0  0  0  0  0
    2.0491   -2.0893   -1.0713 C   0  0  2  0  0  0  0  0  0  0  0  0
    0.7016   -2.5794   -0.7462 C   0  0  0  0  0  0  0  0  0  0  0  0
   -0.1187   -1.8319    0.2344 C   0  0  0  0  0  0  0  0  0  0  0  0
   -0.5324    0.4840   -0.2545 C   0  0  0  0  0  0  0  0  0  0  0  0
   -4.3000   -0.1557    2.4982 N   0  0  0  0  0  0  0  0  0  0  0  0
   -3.1551   -0.2854    3.1805 C   0  0  0  0  0  0  0  0  0  0  0  0
   -2.0910   -0.1452    2.3140 C   0  0  0  0  0  0  0  0  0  0  0  0
   -2.6173    0.0827    1.0577 C   0  0  0  0  0  0  0  0  0  0  0  0
   -1.9967    0.2709   -0.1913 C   0  0  0  0  0  0  0  0  0  0  0  0
   -2.8488    0.4337   -1.2754 C   0  0  0  0  0  0  0  0  0  0  0  0
   -4.2175    0.4148   -1.1062 C   0  0  0  0  0  0  0  0  0  0  0  0
   -4.8111    0.2328    0.1355 C   0  0  0  0  0  0  0  0  0  0  0  0
   -3.9891    0.0687    1.2034 C   0  0  0  0  0  0  0  0  0  0  0  0
   -6.2997    0.2390    0.2942 C   0  0  0  0  0  0  0  0  0  0  0  0
   -2.3208    0.6120   -2.5247 O   0  0  0  0  0  0  0  0  0  0  0  0
   -3.1740    0.7836   -3.6339 C   0  0  0  0  0  0  0  0  0  0  0  0
    2.9754   -3.1098   -0.7567 O   0  0  0  0  0  0  0  0  0  0  0  0
    3.6722   -3.5595   -1.8657 C   0  0  0  0  0  0  0  0  0  0  0  0
    4.6113   -4.6612   -1.4631 C   0  0  0  0  0  0  0  0  0  0  0  0
  1  2  1  0
  2  3  2  0
  3  4  1  0
  4  5  2  0
  5  6  1  0
  6  7  2  0
  2  7  1  0
  1  8  2  0
  1  9  1  0
 10 11  1  0
 11 12  1  6
 12 13  1  0
 13 14  1  0
 14 15  1  0
 10 15  1  0
 17 18  1  0
 18 19  2  0
 19 20  1  0
 20 21  2  0
 21 22  1  0
 22 23  2  0
 23 24  1  0
 24 25  2  0
 17 25  1  0
 20 25  1  0
 24 26  1  0
 27 28  1  0
 22 27  1  0
 16 21  1  0
 10 16  1  0
 30 31  1  0
 29 30  1  0
 13 29  1  1
 11  5  1  0
M  END
>  <molecule_name>  (38) 
IPTACOPAN

>  <target_name>  (38) 
Complement factor B

>  <organism>  (38) 
Homo sapiens

>  <chembl_id>  (38) 
CHEMBL4594448

>  <activity_info>  (38) 
IC50: 7.07|Kd: 8.10

>  <pACT>  (38) 
7.327500000000001

>  <ID>  (38) 
RENRQMCACQEWFC-UGKGYDQZSA-N

>  <conforer_id>  (38) 
conf49

$$$$
RENRQMCACQEWFC-UGKGYDQZSA-N
     RDKit          3D

 31 34  0  0  1  0  0  0  0  0999 V2000
    3.1112    5.1417    1.8089 C   0  0  0  0  0  0  0  0  0  0  0  0
    2.7050    3.7733    1.5320 C   0  0  0  0  0  0  0  0  0  0  0  0
    1.5750    3.2148    2.0509 C   0  0  0  0  0  0  0  0  0  0  0  0
    1.1959    1.9031    1.7632 C   0  0  0  0  0  0  0  0  0  0  0  0
    1.9518    1.1182    0.9375 C   0  0  0  0  0  0  0  0  0  0  0  0
    3.0916    1.6825    0.4120 C   0  0  0  0  0  0  0  0  0  0  0  0
    3.4877    2.9886    0.6884 C   0  0  0  0  0  0  0  0  0  0  0  0
    2.4098    5.8738    2.5379 O   0  0  0  0  0  0  0  0  0  0  0  0
    4.2801    5.6419    1.2664 O   0  0  0  0  0  0  0  0  0  0  0  0
    0.2166   -0.4833    0.4208 N   0  0  0  0  0  0  0  0  0  0  0  0
    1.5962   -0.2782    0.6185 C   0  0  1  0  0  0  0  0  0  0  0  0
    2.4913   -0.8309   -0.4482 C   0  0  0  0  0  0  0  0  0  0  0  0
    2.0491   -2.0893   -1.0713 C   0  0  2  0  0  0  0  0  0  0  0  0
    0.7016   -2.5794   -0.7462 C   0  0  0  0  0  0  0  0  0  0  0  0
   -0.1187   -1.8319    0.2344 C   0  0  0  0  0  0  0  0  0  0  0  0
   -0.5324    0.4840   -0.2545 C   0  0  0  0  0  0  0  0  0  0  0  0
   -4.3000   -0.1557    2.4982 N   0  0  0  0  0  0  0  0  0  0  0  0
   -3.1551   -0.2854    3.1805 C   0  0  0  0  0  0  0  0  0  0  0  0
   -2.0910   -0.1452    2.3140 C   0  0  0  0  0  0  0  0  0  0  0  0
   -2.6173    0.0827    1.0577 C   0  0  0  0  0  0  0  0  0  0  0  0
   -1.9967    0.2709   -0.1913 C   0  0  0  0  0  0  0  0  0  0  0  0
   -2.8488    0.4337   -1.2754 C   0  0  0  0  0  0  0  0  0  0  0  0
   -4.2175    0.4148   -1.1062 C   0  0  0  0  0  0  0  0  0  0  0  0
   -4.8111    0.2328    0.1355 C   0  0  0  0  0  0  0  0  0  0  0  0
   -3.9891    0.0687    1.2034 C   0  0  0  0  0  0  0  0  0  0  0  0
   -6.2997    0.2390    0.2942 C   0  0  0  0  0  0  0  0  0  0  0  0
   -2.3208    0.6120   -2.5247 O   0  0  0  0  0  0  0  0  0  0  0  0
   -3.1740    0.7836   -3.6339 C   0  0  0  0  0  0  0  0  0  0  0  0
    2.9754   -3.1098   -0.7567 O   0  0  0  0  0  0  0  0  0  0  0  0
    3.6722   -3.5595   -1.8657 C   0  0  0  0  0  0  0  0  0  0  0  0
    4.6113   -4.6612   -1.4631 C   0  0  0  0  0  0  0  0  0  0  0  0
  1  2  1  0
  2  3  2  0
  3  4  1  0
  4  5  2  0
  5  6  1  0
  6  7  2  0
  2  7  1  0
  1  8  2  0
  1  9  1  0
 10 11  1  0
 11 12  1  6
 12 13  1  0
 13 14  1  0
 14 15  1  0
 10 15  1  0
 17 18  1  0
 18 19  2  0
 19 20  1  0
 20 21  2  0
 21 22  1  0
 22 23  2  0
 23 24  1  0
 24 25  2  0
 17 25  1  0
 20 25  1  0
 24 26  1  0
 27 28  1  0
 22 27  1  0
 16 21  1  0
 10 16  1  0
 30 31  1  0
 29 30  1  0
 13 29  1  1
 11  5  1  0
M  END
>  <molecule_name>  (39) 
IPTACOPAN

>  <target_name>  (39) 
Complement factor B

>  <organism>  (39) 
Homo sapiens

>  <chembl_id>  (39) 
CHEMBL4594448

>  <activity_info>  (39) 
IC50: 7.07|Kd: 8.10

>  <pACT>  (39) 
7.327500000000001

>  <ID>  (39) 
RENRQMCACQEWFC-UGKGYDQZSA-N

>  <conforer_id>  (39) 
conf49

$$$$
RENRQMCACQEWFC-UGKGYDQZSA-N
     RDKit          3D

 31 34  0  0  1  0  0  0  0  0999 V2000
    3.1112    5.1417    1.8089 C   0  0  0  0  0  0  0  0  0  0  0  0
    2.7050    3.7733    1.5320 C   0  0  0  0  0  0  0  0  0  0  0  0
    1.5750    3.2148    2.0509 C   0  0  0  0  0  0  0  0  0  0  0  0
    1.1959    1.9031    1.7632 C   0  0  0  0  0  0  0  0  0  0  0  0
    1.9518    1.1182    0.9375 C   0  0  0  0  0  0  0  0  0  0  0  0
    3.0916    1.6825    0.4120 C   0  0  0  0  0  0  0  0  0  0  0  0
    3.4877    2.9886    0.6884 C   0  0  0  0  0  0  0  0  0  0  0  0
    2.4098    5.8738    2.5379 O   0  0  0  0  0  0  0  0  0  0  0  0
    4.2801    5.6419    1.2664 O   0  0  0  0  0  0  0  0  0  0  0  0
    0.2166   -0.4833    0.4208 N   0  0  0  0  0  0  0  0  0  0  0  0
    1.5962   -0.2782    0.6185 C   0  0  1  0  0  0  0  0  0  0  0  0
    2.4913   -0.8309   -0.4482 C   0  0  0  0  0  0  0  0  0  0  0  0
    2.0491   -2.0893   -1.0713 C   0  0  2  0  0  0  0  0  0  0  0  0
    0.7016   -2.5794   -0.7462 C   0  0  0  0  0  0  0  0  0  0  0  0
   -0.1187   -1.8319    0.2344 C   0  0  0  0  0  0  0  0  0  0  0  0
   -0.5324    0.4840   -0.2545 C   0  0  0  0  0  0  0  0  0  0  0  0
   -4.3000   -0.1557    2.4982 N   0  0  0  0  0  0  0  0  0  0  0  0
   -3.1551   -0.2854    3.1805 C   0  0  0  0  0  0  0  0  0  0  0  0
   -2.0910   -0.1452    2.3140 C   0  0  0  0  0  0  0  0  0  0  0  0
   -2.6173    0.0827    1.0577 C   0  0  0  0  0  0  0  0  0  0  0  0
   -1.9967    0.2709   -0.1913 C   0  0  0  0  0  0  0  0  0  0  0  0
   -2.8488    0.4337   -1.2754 C   0  0  0  0  0  0  0  0  0  0  0  0
   -4.2175    0.4148   -1.1062 C   0  0  0  0  0  0  0  0  0  0  0  0
   -4.8111    0.2328    0.1355 C   0  0  0  0  0  0  0  0  0  0  0  0
   -3.9891    0.0687    1.2034 C   0  0  0  0  0  0  0  0  0  0  0  0
   -6.2997    0.2390    0.2942 C   0  0  0  0  0  0  0  0  0  0  0  0
   -2.3208    0.6120   -2.5247 O   0  0  0  0  0  0  0  0  0  0  0  0
   -3.1740    0.7836   -3.6339 C   0  0  0  0  0  0  0  0  0  0  0  0
    2.9754   -3.1098   -0.7567 O   0  0  0  0  0  0  0  0  0  0  0  0
    3.6722   -3.5595   -1.8657 C   0  0  0  0  0  0  0  0  0  0  0  0
    4.6113   -4.6612   -1.4631 C   0  0  0  0  0  0  0  0  0  0  0  0
  1  2  1  0
  2  3  2  0
  3  4  1  0
  4  5  2  0
  5  6  1  0
  6  7  2  0
  2  7  1  0
  1  8  2  0
  1  9  1  0
 10 11  1  0
 11 12  1  6
 12 13  1  0
 13 14  1  0
 14 15  1  0
 10 15  1  0
 17 18  1  0
 18 19  2  0
 19 20  1  0
 20 21  2  0
 21 22  1  0
 22 23  2  0
 23 24  1  0
 24 25  2  0
 17 25  1  0
 20 25  1  0
 24 26  1  0
 27 28  1  0
 22 27  1  0
 16 21  1  0
 10 16  1  0
 30 31  1  0
 29 30  1  0
 13 29  1  1
 11  5  1  0
M  END
>  <molecule_name>  (40) 
IPTACOPAN

>  <target_name>  (40) 
Complement factor B

>  <organism>  (40) 
Homo sapiens

>  <chembl_id>  (40) 
CHEMBL4594448

>  <activity_info>  (40) 
IC50: 7.07|Kd: 8.10

>  <pACT>  (40) 
7.327500000000001

>  <ID>  (40) 
RENRQMCACQEWFC-UGKGYDQZSA-N

>  <conforer_id>  (40) 
conf49

$$$$
RENRQMCACQEWFC-UGKGYDQZSA-N
     RDKit          3D

 31 34  0  0  1  0  0  0  0  0999 V2000
    3.1112    5.1417    1.8089 C   0  0  0  0  0  0  0  0  0  0  0  0
    2.7050    3.7733    1.5320 C   0  0  0  0  0  0  0  0  0  0  0  0
    1.5750    3.2148    2.0509 C   0  0  0  0  0  0  0  0  0  0  0  0
    1.1959    1.9031    1.7632 C   0  0  0  0  0  0  0  0  0  0  0  0
    1.9518    1.1182    0.9375 C   0  0  0  0  0  0  0  0  0  0  0  0
    3.0916    1.6825    0.4120 C   0  0  0  0  0  0  0  0  0  0  0  0
    3.4877    2.9886    0.6884 C   0  0  0  0  0  0  0  0  0  0  0  0
    2.4098    5.8738    2.5379 O   0  0  0  0  0  0  0  0  0  0  0  0
    4.2801    5.6419    1.2664 O   0  0  0  0  0  0  0  0  0  0  0  0
    0.2166   -0.4833    0.4208 N   0  0  0  0  0  0  0  0  0  0  0  0
    1.5962   -0.2782    0.6185 C   0  0  1  0  0  0  0  0  0  0  0  0
    2.4913   -0.8309   -0.4482 C   0  0  0  0  0  0  0  0  0  0  0  0
    2.0491   -2.0893   -1.0713 C   0  0  2  0  0  0  0  0  0  0  0  0
    0.7016   -2.5794   -0.7462 C   0  0  0  0  0  0  0  0  0  0  0  0
   -0.1187   -1.8319    0.2344 C   0  0  0  0  0  0  0  0  0  0  0  0
   -0.5324    0.4840   -0.2545 C   0  0  0  0  0  0  0  0  0  0  0  0
   -4.3000   -0.1557    2.4982 N   0  0  0  0  0  0  0  0  0  0  0  0
   -3.1551   -0.2854    3.1805 C   0  0  0  0  0  0  0  0  0  0  0  0
   -2.0910   -0.1452    2.3140 C   0  0  0  0  0  0  0  0  0  0  0  0
   -2.6173    0.0827    1.0577 C   0  0  0  0  0  0  0  0  0  0  0  0
   -1.9967    0.2709   -0.1913 C   0  0  0  0  0  0  0  0  0  0  0  0
   -2.8488    0.4337   -1.2754 C   0  0  0  0  0  0  0  0  0  0  0  0
   -4.2175    0.4148   -1.1062 C   0  0  0  0  0  0  0  0  0  0  0  0
   -4.8111    0.2328    0.1355 C   0  0  0  0  0  0  0  0  0  0  0  0
   -3.9891    0.0687    1.2034 C   0  0  0  0  0  0  0  0  0  0  0  0
   -6.2997    0.2390    0.2942 C   0  0  0  0  0  0  0  0  0  0  0  0
   -2.3208    0.6120   -2.5247 O   0  0  0  0  0  0  0  0  0  0  0  0
   -3.1740    0.7836   -3.6339 C   0  0  0  0  0  0  0  0  0  0  0  0
    2.9754   -3.1098   -0.7567 O   0  0  0  0  0  0  0  0  0  0  0  0
    3.6722   -3.5595   -1.8657 C   0  0  0  0  0  0  0  0  0  0  0  0
    4.6113   -4.6612   -1.4631 C   0  0  0  0  0  0  0  0  0  0  0  0
  1  2  1  0
  2  3  2  0
  3  4  1  0
  4  5  2  0
  5  6  1  0
  6  7  2  0
  2  7  1  0
  1  8  2  0
  1  9  1  0
 10 11  1  0
 11 12  1  6
 12 13  1  0
 13 14  1  0
 14 15  1  0
 10 15  1  0
 17 18  1  0
 18 19  2  0
 19 20  1  0
 20 21  2  0
 21 22  1  0
 22 23  2  0
 23 24  1  0
 24 25  2  0
 17 25  1  0
 20 25  1  0
 24 26  1  0
 27 28  1  0
 22 27  1  0
 16 21  1  0
 10 16  1  0
 30 31  1  0
 29 30  1  0
 13 29  1  1
 11  5  1  0
M  END
>  <molecule_name>  (41) 
IPTACOPAN

>  <target_name>  (41) 
Complement factor B

>  <organism>  (41) 
Homo sapiens

>  <chembl_id>  (41) 
CHEMBL4594448

>  <activity_info>  (41) 
IC50: 7.07|Kd: 8.10

>  <pACT>  (41) 
7.327500000000001

>  <ID>  (41) 
RENRQMCACQEWFC-UGKGYDQZSA-N

>  <conforer_id>  (41) 
conf49

$$$$
RENRQMCACQEWFC-UGKGYDQZSA-N
     RDKit          3D

 31 34  0  0  1  0  0  0  0  0999 V2000
    3.1112    5.1417    1.8089 C   0  0  0  0  0  0  0  0  0  0  0  0
    2.7050    3.7733    1.5320 C   0  0  0  0  0  0  0  0  0  0  0  0
    1.5750    3.2148    2.0509 C   0  0  0  0  0  0  0  0  0  0  0  0
    1.1959    1.9031    1.7632 C   0  0  0  0  0  0  0  0  0  0  0  0
    1.9518    1.1182    0.9375 C   0  0  0  0  0  0  0  0  0  0  0  0
    3.0916    1.6825    0.4120 C   0  0  0  0  0  0  0  0  0  0  0  0
    3.4877    2.9886    0.6884 C   0  0  0  0  0  0  0  0  0  0  0  0
    2.4098    5.8738    2.5379 O   0  0  0  0  0  0  0  0  0  0  0  0
    4.2801    5.6419    1.2664 O   0  0  0  0  0  0  0  0  0  0  0  0
    0.2166   -0.4833    0.4208 N   0  0  0  0  0  0  0  0  0  0  0  0
    1.5962   -0.2782    0.6185 C   0  0  1  0  0  0  0  0  0  0  0  0
    2.4913   -0.8309   -0.4482 C   0  0  0  0  0  0  0  0  0  0  0  0
    2.0491   -2.0893   -1.0713 C   0  0  2  0  0  0  0  0  0  0  0  0
    0.7016   -2.5794   -0.7462 C   0  0  0  0  0  0  0  0  0  0  0  0
   -0.1187   -1.8319    0.2344 C   0  0  0  0  0  0  0  0  0  0  0  0
   -0.5324    0.4840   -0.2545 C   0  0  0  0  0  0  0  0  0  0  0  0
   -4.3000   -0.1557    2.4982 N   0  0  0  0  0  0  0  0  0  0  0  0
   -3.1551   -0.2854    3.1805 C   0  0  0  0  0  0  0  0  0  0  0  0
   -2.0910   -0.1452    2.3140 C   0  0  0  0  0  0  0  0  0  0  0  0
   -2.6173    0.0827    1.0577 C   0  0  0  0  0  0  0  0  0  0  0  0
   -1.9967    0.2709   -0.1913 C   0  0  0  0  0  0  0  0  0  0  0  0
   -2.8488    0.4337   -1.2754 C   0  0  0  0  0  0  0  0  0  0  0  0
   -4.2175    0.4148   -1.1062 C   0  0  0  0  0  0  0  0  0  0  0  0
   -4.8111    0.2328    0.1355 C   0  0  0  0  0  0  0  0  0  0  0  0
   -3.9891    0.0687    1.2034 C   0  0  0  0  0  0  0  0  0  0  0  0
   -6.2997    0.2390    0.2942 C   0  0  0  0  0  0  0  0  0  0  0  0
   -2.3208    0.6120   -2.5247 O   0  0  0  0  0  0  0  0  0  0  0  0
   -3.1740    0.7836   -3.6339 C   0  0  0  0  0  0  0  0  0  0  0  0
    2.9754   -3.1098   -0.7567 O   0  0  0  0  0  0  0  0  0  0  0  0
    3.6722   -3.5595   -1.8657 C   0  0  0  0  0  0  0  0  0  0  0  0
    4.6113   -4.6612   -1.4631 C   0  0  0  0  0  0  0  0  0  0  0  0
  1  2  1  0
  2  3  2  0
  3  4  1  0
  4  5  2  0
  5  6  1  0
  6  7  2  0
  2  7  1  0
  1  8  2  0
  1  9  1  0
 10 11  1  0
 11 12  1  6
 12 13  1  0
 13 14  1  0
 14 15  1  0
 10 15  1  0
 17 18  1  0
 18 19  2  0
 19 20  1  0
 20 21  2  0
 21 22  1  0
 22 23  2  0
 23 24  1  0
 24 25  2  0
 17 25  1  0
 20 25  1  0
 24 26  1  0
 27 28  1  0
 22 27  1  0
 16 21  1  0
 10 16  1  0
 30 31  1  0
 29 30  1  0
 13 29  1  1
 11  5  1  0
M  END
>  <molecule_name>  (42) 
IPTACOPAN

>  <target_name>  (42) 
Complement factor B

>  <organism>  (42) 
Homo sapiens

>  <chembl_id>  (42) 
CHEMBL4594448

>  <activity_info>  (42) 
IC50: 7.07|Kd: 8.10

>  <pACT>  (42) 
7.327500000000001

>  <ID>  (42) 
RENRQMCACQEWFC-UGKGYDQZSA-N

>  <conforer_id>  (42) 
conf49

$$$$
RENRQMCACQEWFC-UGKGYDQZSA-N
     RDKit          3D

 31 34  0  0  1  0  0  0  0  0999 V2000
    3.1112    5.1417    1.8089 C   0  0  0  0  0  0  0  0  0  0  0  0
    2.7050    3.7733    1.5320 C   0  0  0  0  0  0  0  0  0  0  0  0
    1.5750    3.2148    2.0509 C   0  0  0  0  0  0  0  0  0  0  0  0
    1.1959    1.9031    1.7632 C   0  0  0  0  0  0  0  0  0  0  0  0
    1.9518    1.1182    0.9375 C   0  0  0  0  0  0  0  0  0  0  0  0
    3.0916    1.6825    0.4120 C   0  0  0  0  0  0  0  0  0  0  0  0
    3.4877    2.9886    0.6884 C   0  0  0  0  0  0  0  0  0  0  0  0
    2.4098    5.8738    2.5379 O   0  0  0  0  0  0  0  0  0  0  0  0
    4.2801    5.6419    1.2664 O   0  0  0  0  0  0  0  0  0  0  0  0
    0.2166   -0.4833    0.4208 N   0  0  0  0  0  0  0  0  0  0  0  0
    1.5962   -0.2782    0.6185 C   0  0  1  0  0  0  0  0  0  0  0  0
    2.4913   -0.8309   -0.4482 C   0  0  0  0  0  0  0  0  0  0  0  0
    2.0491   -2.0893   -1.0713 C   0  0  2  0  0  0  0  0  0  0  0  0
    0.7016   -2.5794   -0.7462 C   0  0  0  0  0  0  0  0  0  0  0  0
   -0.1187   -1.8319    0.2344 C   0  0  0  0  0  0  0  0  0  0  0  0
   -0.5324    0.4840   -0.2545 C   0  0  0  0  0  0  0  0  0  0  0  0
   -4.3000   -0.1557    2.4982 N   0  0  0  0  0  0  0  0  0  0  0  0
   -3.1551   -0.2854    3.1805 C   0  0  0  0  0  0  0  0  0  0  0  0
   -2.0910   -0.1452    2.3140 C   0  0  0  0  0  0  0  0  0  0  0  0
   -2.6173    0.0827    1.0577 C   0  0  0  0  0  0  0  0  0  0  0  0
   -1.9967    0.2709   -0.1913 C   0  0  0  0  0  0  0  0  0  0  0  0
   -2.8488    0.4337   -1.2754 C   0  0  0  0  0  0  0  0  0  0  0  0
   -4.2175    0.4148   -1.1062 C   0  0  0  0  0  0  0  0  0  0  0  0
   -4.8111    0.2328    0.1355 C   0  0  0  0  0  0  0  0  0  0  0  0
   -3.9891    0.0687    1.2034 C   0  0  0  0  0  0  0  0  0  0  0  0
   -6.2997    0.2390    0.2942 C   0  0  0  0  0  0  0  0  0  0  0  0
   -2.3208    0.6120   -2.5247 O   0  0  0  0  0  0  0  0  0  0  0  0
   -3.1740    0.7836   -3.6339 C   0  0  0  0  0  0  0  0  0  0  0  0
    2.9754   -3.1098   -0.7567 O   0  0  0  0  0  0  0  0  0  0  0  0
    3.6722   -3.5595   -1.8657 C   0  0  0  0  0  0  0  0  0  0  0  0
    4.6113   -4.6612   -1.4631 C   0  0  0  0  0  0  0  0  0  0  0  0
  1  2  1  0
  2  3  2  0
  3  4  1  0
  4  5  2  0
  5  6  1  0
  6  7  2  0
  2  7  1  0
  1  8  2  0
  1  9  1  0
 10 11  1  0
 11 12  1  6
 12 13  1  0
 13 14  1  0
 14 15  1  0
 10 15  1  0
 17 18  1  0
 18 19  2  0
 19 20  1  0
 20 21  2  0
 21 22  1  0
 22 23  2  0
 23 24  1  0
 24 25  2  0
 17 25  1  0
 20 25  1  0
 24 26  1  0
 27 28  1  0
 22 27  1  0
 16 21  1  0
 10 16  1  0
 30 31  1  0
 29 30  1  0
 13 29  1  1
 11  5  1  0
M  END
>  <molecule_name>  (43) 
IPTACOPAN

>  <target_name>  (43) 
Complement factor B

>  <organism>  (43) 
Homo sapiens

>  <chembl_id>  (43) 
CHEMBL4594448

>  <activity_info>  (43) 
IC50: 7.07|Kd: 8.10

>  <pACT>  (43) 
7.327500000000001

>  <ID>  (43) 
RENRQMCACQEWFC-UGKGYDQZSA-N

>  <conforer_id>  (43) 
conf49

$$$$
RENRQMCACQEWFC-UGKGYDQZSA-N
     RDKit          3D

 31 34  0  0  1  0  0  0  0  0999 V2000
    3.1112    5.1417    1.8089 C   0  0  0  0  0  0  0  0  0  0  0  0
    2.7050    3.7733    1.5320 C   0  0  0  0  0  0  0  0  0  0  0  0
    1.5750    3.2148    2.0509 C   0  0  0  0  0  0  0  0  0  0  0  0
    1.1959    1.9031    1.7632 C   0  0  0  0  0  0  0  0  0  0  0  0
    1.9518    1.1182    0.9375 C   0  0  0  0  0  0  0  0  0  0  0  0
    3.0916    1.6825    0.4120 C   0  0  0  0  0  0  0  0  0  0  0  0
    3.4877    2.9886    0.6884 C   0  0  0  0  0  0  0  0  0  0  0  0
    2.4098    5.8738    2.5379 O   0  0  0  0  0  0  0  0  0  0  0  0
    4.2801    5.6419    1.2664 O   0  0  0  0  0  0  0  0  0  0  0  0
    0.2166   -0.4833    0.4208 N   0  0  0  0  0  0  0  0  0  0  0  0
    1.5962   -0.2782    0.6185 C   0  0  1  0  0  0  0  0  0  0  0  0
    2.4913   -0.8309   -0.4482 C   0  0  0  0  0  0  0  0  0  0  0  0
    2.0491   -2.0893   -1.0713 C   0  0  2  0  0  0  0  0  0  0  0  0
    0.7016   -2.5794   -0.7462 C   0  0  0  0  0  0  0  0  0  0  0  0
   -0.1187   -1.8319    0.2344 C   0  0  0  0  0  0  0  0  0  0  0  0
   -0.5324    0.4840   -0.2545 C   0  0  0  0  0  0  0  0  0  0  0  0
   -4.3000   -0.1557    2.4982 N   0  0  0  0  0  0  0  0  0  0  0  0
   -3.1551   -0.2854    3.1805 C   0  0  0  0  0  0  0  0  0  0  0  0
   -2.0910   -0.1452    2.3140 C   0  0  0  0  0  0  0  0  0  0  0  0
   -2.6173    0.0827    1.0577 C   0  0  0  0  0  0  0  0  0  0  0  0
   -1.9967    0.2709   -0.1913 C   0  0  0  0  0  0  0  0  0  0  0  0
   -2.8488    0.4337   -1.2754 C   0  0  0  0  0  0  0  0  0  0  0  0
   -4.2175    0.4148   -1.1062 C   0  0  0  0  0  0  0  0  0  0  0  0
   -4.8111    0.2328    0.1355 C   0  0  0  0  0  0  0  0  0  0  0  0
   -3.9891    0.0687    1.2034 C   0  0  0  0  0  0  0  0  0  0  0  0
   -6.2997    0.2390    0.2942 C   0  0  0  0  0  0  0  0  0  0  0  0
   -2.3208    0.6120   -2.5247 O   0  0  0  0  0  0  0  0  0  0  0  0
   -3.1740    0.7836   -3.6339 C   0  0  0  0  0  0  0  0  0  0  0  0
    2.9754   -3.1098   -0.7567 O   0  0  0  0  0  0  0  0  0  0  0  0
    3.6722   -3.5595   -1.8657 C   0  0  0  0  0  0  0  0  0  0  0  0
    4.6113   -4.6612   -1.4631 C   0  0  0  0  0  0  0  0  0  0  0  0
  1  2  1  0
  2  3  2  0
  3  4  1  0
  4  5  2  0
  5  6  1  0
  6  7  2  0
  2  7  1  0
  1  8  2  0
  1  9  1  0
 10 11  1  0
 11 12  1  6
 12 13  1  0
 13 14  1  0
 14 15  1  0
 10 15  1  0
 17 18  1  0
 18 19  2  0
 19 20  1  0
 20 21  2  0
 21 22  1  0
 22 23  2  0
 23 24  1  0
 24 25  2  0
 17 25  1  0
 20 25  1  0
 24 26  1  0
 27 28  1  0
 22 27  1  0
 16 21  1  0
 10 16  1  0
 30 31  1  0
 29 30  1  0
 13 29  1  1
 11  5  1  0
M  END
>  <molecule_name>  (44) 
IPTACOPAN

>  <target_name>  (44) 
Complement factor B

>  <organism>  (44) 
Homo sapiens

>  <chembl_id>  (44) 
CHEMBL4594448

>  <activity_info>  (44) 
IC50: 7.07|Kd: 8.10

>  <pACT>  (44) 
7.327500000000001

>  <ID>  (44) 
RENRQMCACQEWFC-UGKGYDQZSA-N

>  <conforer_id>  (44) 
conf49

$$$$
RENRQMCACQEWFC-UGKGYDQZSA-N
     RDKit          3D

 31 34  0  0  1  0  0  0  0  0999 V2000
    3.1112    5.1417    1.8089 C   0  0  0  0  0  0  0  0  0  0  0  0
    2.7050    3.7733    1.5320 C   0  0  0  0  0  0  0  0  0  0  0  0
    1.5750    3.2148    2.0509 C   0  0  0  0  0  0  0  0  0  0  0  0
    1.1959    1.9031    1.7632 C   0  0  0  0  0  0  0  0  0  0  0  0
    1.9518    1.1182    0.9375 C   0  0  0  0  0  0  0  0  0  0  0  0
    3.0916    1.6825    0.4120 C   0  0  0  0  0  0  0  0  0  0  0  0
    3.4877    2.9886    0.6884 C   0  0  0  0  0  0  0  0  0  0  0  0
    2.4098    5.8738    2.5379 O   0  0  0  0  0  0  0  0  0  0  0  0
    4.2801    5.6419    1.2664 O   0  0  0  0  0  0  0  0  0  0  0  0
    0.2166   -0.4833    0.4208 N   0  0  0  0  0  0  0  0  0  0  0  0
    1.5962   -0.2782    0.6185 C   0  0  1  0  0  0  0  0  0  0  0  0
    2.4913   -0.8309   -0.4482 C   0  0  0  0  0  0  0  0  0  0  0  0
    2.0491   -2.0893   -1.0713 C   0  0  2  0  0  0  0  0  0  0  0  0
    0.7016   -2.5794   -0.7462 C   0  0  0  0  0  0  0  0  0  0  0  0
   -0.1187   -1.8319    0.2344 C   0  0  0  0  0  0  0  0  0  0  0  0
   -0.5324    0.4840   -0.2545 C   0  0  0  0  0  0  0  0  0  0  0  0
   -4.3000   -0.1557    2.4982 N   0  0  0  0  0  0  0  0  0  0  0  0
   -3.1551   -0.2854    3.1805 C   0  0  0  0  0  0  0  0  0  0  0  0
   -2.0910   -0.1452    2.3140 C   0  0  0  0  0  0  0  0  0  0  0  0
   -2.6173    0.0827    1.0577 C   0  0  0  0  0  0  0  0  0  0  0  0
   -1.9967    0.2709   -0.1913 C   0  0  0  0  0  0  0  0  0  0  0  0
   -2.8488    0.4337   -1.2754 C   0  0  0  0  0  0  0  0  0  0  0  0
   -4.2175    0.4148   -1.1062 C   0  0  0  0  0  0  0  0  0  0  0  0
   -4.8111    0.2328    0.1355 C   0  0  0  0  0  0  0  0  0  0  0  0
   -3.9891    0.0687    1.2034 C   0  0  0  0  0  0  0  0  0  0  0  0
   -6.2997    0.2390    0.2942 C   0  0  0  0  0  0  0  0  0  0  0  0
   -2.3208    0.6120   -2.5247 O   0  0  0  0  0  0  0  0  0  0  0  0
   -3.1740    0.7836   -3.6339 C   0  0  0  0  0  0  0  0  0  0  0  0
    2.9754   -3.1098   -0.7567 O   0  0  0  0  0  0  0  0  0  0  0  0
    3.6722   -3.5595   -1.8657 C   0  0  0  0  0  0  0  0  0  0  0  0
    4.6113   -4.6612   -1.4631 C   0  0  0  0  0  0  0  0  0  0  0  0
  1  2  1  0
  2  3  2  0
  3  4  1  0
  4  5  2  0
  5  6  1  0
  6  7  2  0
  2  7  1  0
  1  8  2  0
  1  9  1  0
 10 11  1  0
 11 12  1  6
 12 13  1  0
 13 14  1  0
 14 15  1  0
 10 15  1  0
 17 18  1  0
 18 19  2  0
 19 20  1  0
 20 21  2  0
 21 22  1  0
 22 23  2  0
 23 24  1  0
 24 25  2  0
 17 25  1  0
 20 25  1  0
 24 26  1  0
 27 28  1  0
 22 27  1  0
 16 21  1  0
 10 16  1  0
 30 31  1  0
 29 30  1  0
 13 29  1  1
 11  5  1  0
M  END
>  <molecule_name>  (45) 
IPTACOPAN

>  <target_name>  (45) 
Complement factor B

>  <organism>  (45) 
Homo sapiens

>  <chembl_id>  (45) 
CHEMBL4594448

>  <activity_info>  (45) 
IC50: 7.07|Kd: 8.10

>  <pACT>  (45) 
7.327500000000001

>  <ID>  (45) 
RENRQMCACQEWFC-UGKGYDQZSA-N

>  <conforer_id>  (45) 
conf49

$$$$
RENRQMCACQEWFC-UGKGYDQZSA-N
     RDKit          3D

 31 34  0  0  1  0  0  0  0  0999 V2000
    3.1112    5.1417    1.8089 C   0  0  0  0  0  0  0  0  0  0  0  0
    2.7050    3.7733    1.5320 C   0  0  0  0  0  0  0  0  0  0  0  0
    1.5750    3.2148    2.0509 C   0  0  0  0  0  0  0  0  0  0  0  0
    1.1959    1.9031    1.7632 C   0  0  0  0  0  0  0  0  0  0  0  0
    1.9518    1.1182    0.9375 C   0  0  0  0  0  0  0  0  0  0  0  0
    3.0916    1.6825    0.4120 C   0  0  0  0  0  0  0  0  0  0  0  0
    3.4877    2.9886    0.6884 C   0  0  0  0  0  0  0  0  0  0  0  0
    2.4098    5.8738    2.5379 O   0  0  0  0  0  0  0  0  0  0  0  0
    4.2801    5.6419    1.2664 O   0  0  0  0  0  0  0  0  0  0  0  0
    0.2166   -0.4833    0.4208 N   0  0  0  0  0  0  0  0  0  0  0  0
    1.5962   -0.2782    0.6185 C   0  0  1  0  0  0  0  0  0  0  0  0
    2.4913   -0.8309   -0.4482 C   0  0  0  0  0  0  0  0  0  0  0  0
    2.0491   -2.0893   -1.0713 C   0  0  2  0  0  0  0  0  0  0  0  0
    0.7016   -2.5794   -0.7462 C   0  0  0  0  0  0  0  0  0  0  0  0
   -0.1187   -1.8319    0.2344 C   0  0  0  0  0  0  0  0  0  0  0  0
   -0.5324    0.4840   -0.2545 C   0  0  0  0  0  0  0  0  0  0  0  0
   -4.3000   -0.1557    2.4982 N   0  0  0  0  0  0  0  0  0  0  0  0
   -3.1551   -0.2854    3.1805 C   0  0  0  0  0  0  0  0  0  0  0  0
   -2.0910   -0.1452    2.3140 C   0  0  0  0  0  0  0  0  0  0  0  0
   -2.6173    0.0827    1.0577 C   0  0  0  0  0  0  0  0  0  0  0  0
   -1.9967    0.2709   -0.1913 C   0  0  0  0  0  0  0  0  0  0  0  0
   -2.8488    0.4337   -1.2754 C   0  0  0  0  0  0  0  0  0  0  0  0
   -4.2175    0.4148   -1.1062 C   0  0  0  0  0  0  0  0  0  0  0  0
   -4.8111    0.2328    0.1355 C   0  0  0  0  0  0  0  0  0  0  0  0
   -3.9891    0.0687    1.2034 C   0  0  0  0  0  0  0  0  0  0  0  0
   -6.2997    0.2390    0.2942 C   0  0  0  0  0  0  0  0  0  0  0  0
   -2.3208    0.6120   -2.5247 O   0  0  0  0  0  0  0  0  0  0  0  0
   -3.1740    0.7836   -3.6339 C   0  0  0  0  0  0  0  0  0  0  0  0
    2.9754   -3.1098   -0.7567 O   0  0  0  0  0  0  0  0  0  0  0  0
    3.6722   -3.5595   -1.8657 C   0  0  0  0  0  0  0  0  0  0  0  0
    4.6113   -4.6612   -1.4631 C   0  0  0  0  0  0  0  0  0  0  0  0
  1  2  1  0
  2  3  2  0
  3  4  1  0
  4  5  2  0
  5  6  1  0
  6  7  2  0
  2  7  1  0
  1  8  2  0
  1  9  1  0
 10 11  1  0
 11 12  1  6
 12 13  1  0
 13 14  1  0
 14 15  1  0
 10 15  1  0
 17 18  1  0
 18 19  2  0
 19 20  1  0
 20 21  2  0
 21 22  1  0
 22 23  2  0
 23 24  1  0
 24 25  2  0
 17 25  1  0
 20 25  1  0
 24 26  1  0
 27 28  1  0
 22 27  1  0
 16 21  1  0
 10 16  1  0
 30 31  1  0
 29 30  1  0
 13 29  1  1
 11  5  1  0
M  END
>  <molecule_name>  (46) 
IPTACOPAN

>  <target_name>  (46) 
Complement factor B

>  <organism>  (46) 
Homo sapiens

>  <chembl_id>  (46) 
CHEMBL4594448

>  <activity_info>  (46) 
IC50: 7.07|Kd: 8.10

>  <pACT>  (46) 
7.327500000000001

>  <ID>  (46) 
RENRQMCACQEWFC-UGKGYDQZSA-N

>  <conforer_id>  (46) 
conf49

$$$$
RENRQMCACQEWFC-UGKGYDQZSA-N
     RDKit          3D

 31 34  0  0  1  0  0  0  0  0999 V2000
    3.1112    5.1417    1.8089 C   0  0  0  0  0  0  0  0  0  0  0  0
    2.7050    3.7733    1.5320 C   0  0  0  0  0  0  0  0  0  0  0  0
    1.5750    3.2148    2.0509 C   0  0  0  0  0  0  0  0  0  0  0  0
    1.1959    1.9031    1.7632 C   0  0  0  0  0  0  0  0  0  0  0  0
    1.9518    1.1182    0.9375 C   0  0  0  0  0  0  0  0  0  0  0  0
    3.0916    1.6825    0.4120 C   0  0  0  0  0  0  0  0  0  0  0  0
    3.4877    2.9886    0.6884 C   0  0  0  0  0  0  0  0  0  0  0  0
    2.4098    5.8738    2.5379 O   0  0  0  0  0  0  0  0  0  0  0  0
    4.2801    5.6419    1.2664 O   0  0  0  0  0  0  0  0  0  0  0  0
    0.2166   -0.4833    0.4208 N   0  0  0  0  0  0  0  0  0  0  0  0
    1.5962   -0.2782    0.6185 C   0  0  1  0  0  0  0  0  0  0  0  0
    2.4913   -0.8309   -0.4482 C   0  0  0  0  0  0  0  0  0  0  0  0
    2.0491   -2.0893   -1.0713 C   0  0  2  0  0  0  0  0  0  0  0  0
    0.7016   -2.5794   -0.7462 C   0  0  0  0  0  0  0  0  0  0  0  0
   -0.1187   -1.8319    0.2344 C   0  0  0  0  0  0  0  0  0  0  0  0
   -0.5324    0.4840   -0.2545 C   0  0  0  0  0  0  0  0  0  0  0  0
   -4.3000   -0.1557    2.4982 N   0  0  0  0  0  0  0  0  0  0  0  0
   -3.1551   -0.2854    3.1805 C   0  0  0  0  0  0  0  0  0  0  0  0
   -2.0910   -0.1452    2.3140 C   0  0  0  0  0  0  0  0  0  0  0  0
   -2.6173    0.0827    1.0577 C   0  0  0  0  0  0  0  0  0  0  0  0
   -1.9967    0.2709   -0.1913 C   0  0  0  0  0  0  0  0  0  0  0  0
   -2.8488    0.4337   -1.2754 C   0  0  0  0  0  0  0  0  0  0  0  0
   -4.2175    0.4148   -1.1062 C   0  0  0  0  0  0  0  0  0  0  0  0
   -4.8111    0.2328    0.1355 C   0  0  0  0  0  0  0  0  0  0  0  0
   -3.9891    0.0687    1.2034 C   0  0  0  0  0  0  0  0  0  0  0  0
   -6.2997    0.2390    0.2942 C   0  0  0  0  0  0  0  0  0  0  0  0
   -2.3208    0.6120   -2.5247 O   0  0  0  0  0  0  0  0  0  0  0  0
   -3.1740    0.7836   -3.6339 C   0  0  0  0  0  0  0  0  0  0  0  0
    2.9754   -3.1098   -0.7567 O   0  0  0  0  0  0  0  0  0  0  0  0
    3.6722   -3.5595   -1.8657 C   0  0  0  0  0  0  0  0  0  0  0  0
    4.6113   -4.6612   -1.4631 C   0  0  0  0  0  0  0  0  0  0  0  0
  1  2  1  0
  2  3  2  0
  3  4  1  0
  4  5  2  0
  5  6  1  0
  6  7  2  0
  2  7  1  0
  1  8  2  0
  1  9  1  0
 10 11  1  0
 11 12  1  6
 12 13  1  0
 13 14  1  0
 14 15  1  0
 10 15  1  0
 17 18  1  0
 18 19  2  0
 19 20  1  0
 20 21  2  0
 21 22  1  0
 22 23  2  0
 23 24  1  0
 24 25  2  0
 17 25  1  0
 20 25  1  0
 24 26  1  0
 27 28  1  0
 22 27  1  0
 16 21  1  0
 10 16  1  0
 30 31  1  0
 29 30  1  0
 13 29  1  1
 11  5  1  0
M  END
>  <molecule_name>  (47) 
IPTACOPAN

>  <target_name>  (47) 
Complement factor B

>  <organism>  (47) 
Homo sapiens

>  <chembl_id>  (47) 
CHEMBL4594448

>  <activity_info>  (47) 
IC50: 7.07|Kd: 8.10

>  <pACT>  (47) 
7.327500000000001

>  <ID>  (47) 
RENRQMCACQEWFC-UGKGYDQZSA-N

>  <conforer_id>  (47) 
conf49

$$$$
RENRQMCACQEWFC-UGKGYDQZSA-N
     RDKit          3D

 31 34  0  0  1  0  0  0  0  0999 V2000
    3.1112    5.1417    1.8089 C   0  0  0  0  0  0  0  0  0  0  0  0
    2.7050    3.7733    1.5320 C   0  0  0  0  0  0  0  0  0  0  0  0
    1.5750    3.2148    2.0509 C   0  0  0  0  0  0  0  0  0  0  0  0
    1.1959    1.9031    1.7632 C   0  0  0  0  0  0  0  0  0  0  0  0
    1.9518    1.1182    0.9375 C   0  0  0  0  0  0  0  0  0  0  0  0
    3.0916    1.6825    0.4120 C   0  0  0  0  0  0  0  0  0  0  0  0
    3.4877    2.9886    0.6884 C   0  0  0  0  0  0  0  0  0  0  0  0
    2.4098    5.8738    2.5379 O   0  0  0  0  0  0  0  0  0  0  0  0
    4.2801    5.6419    1.2664 O   0  0  0  0  0  0  0  0  0  0  0  0
    0.2166   -0.4833    0.4208 N   0  0  0  0  0  0  0  0  0  0  0  0
    1.5962   -0.2782    0.6185 C   0  0  1  0  0  0  0  0  0  0  0  0
    2.4913   -0.8309   -0.4482 C   0  0  0  0  0  0  0  0  0  0  0  0
    2.0491   -2.0893   -1.0713 C   0  0  2  0  0  0  0  0  0  0  0  0
    0.7016   -2.5794   -0.7462 C   0  0  0  0  0  0  0  0  0  0  0  0
   -0.1187   -1.8319    0.2344 C   0  0  0  0  0  0  0  0  0  0  0  0
   -0.5324    0.4840   -0.2545 C   0  0  0  0  0  0  0  0  0  0  0  0
   -4.3000   -0.1557    2.4982 N   0  0  0  0  0  0  0  0  0  0  0  0
   -3.1551   -0.2854    3.1805 C   0  0  0  0  0  0  0  0  0  0  0  0
   -2.0910   -0.1452    2.3140 C   0  0  0  0  0  0  0  0  0  0  0  0
   -2.6173    0.0827    1.0577 C   0  0  0  0  0  0  0  0  0  0  0  0
   -1.9967    0.2709   -0.1913 C   0  0  0  0  0  0  0  0  0  0  0  0
   -2.8488    0.4337   -1.2754 C   0  0  0  0  0  0  0  0  0  0  0  0
   -4.2175    0.4148   -1.1062 C   0  0  0  0  0  0  0  0  0  0  0  0
   -4.8111    0.2328    0.1355 C   0  0  0  0  0  0  0  0  0  0  0  0
   -3.9891    0.0687    1.2034 C   0  0  0  0  0  0  0  0  0  0  0  0
   -6.2997    0.2390    0.2942 C   0  0  0  0  0  0  0  0  0  0  0  0
   -2.3208    0.6120   -2.5247 O   0  0  0  0  0  0  0  0  0  0  0  0
   -3.1740    0.7836   -3.6339 C   0  0  0  0  0  0  0  0  0  0  0  0
    2.9754   -3.1098   -0.7567 O   0  0  0  0  0  0  0  0  0  0  0  0
    3.6722   -3.5595   -1.8657 C   0  0  0  0  0  0  0  0  0  0  0  0
    4.6113   -4.6612   -1.4631 C   0  0  0  0  0  0  0  0  0  0  0  0
  1  2  1  0
  2  3  2  0
  3  4  1  0
  4  5  2  0
  5  6  1  0
  6  7  2  0
  2  7  1  0
  1  8  2  0
  1  9  1  0
 10 11  1  0
 11 12  1  6
 12 13  1  0
 13 14  1  0
 14 15  1  0
 10 15  1  0
 17 18  1  0
 18 19  2  0
 19 20  1  0
 20 21  2  0
 21 22  1  0
 22 23  2  0
 23 24  1  0
 24 25  2  0
 17 25  1  0
 20 25  1  0
 24 26  1  0
 27 28  1  0
 22 27  1  0
 16 21  1  0
 10 16  1  0
 30 31  1  0
 29 30  1  0
 13 29  1  1
 11  5  1  0
M  END
>  <molecule_name>  (48) 
IPTACOPAN

>  <target_name>  (48) 
Complement factor B

>  <organism>  (48) 
Homo sapiens

>  <chembl_id>  (48) 
CHEMBL4594448

>  <activity_info>  (48) 
IC50: 7.07|Kd: 8.10

>  <pACT>  (48) 
7.327500000000001

>  <ID>  (48) 
RENRQMCACQEWFC-UGKGYDQZSA-N

>  <conforer_id>  (48) 
conf49

$$$$
RENRQMCACQEWFC-UGKGYDQZSA-N
     RDKit          3D

 31 34  0  0  1  0  0  0  0  0999 V2000
    3.1112    5.1417    1.8089 C   0  0  0  0  0  0  0  0  0  0  0  0
    2.7050    3.7733    1.5320 C   0  0  0  0  0  0  0  0  0  0  0  0
    1.5750    3.2148    2.0509 C   0  0  0  0  0  0  0  0  0  0  0  0
    1.1959    1.9031    1.7632 C   0  0  0  0  0  0  0  0  0  0  0  0
    1.9518    1.1182    0.9375 C   0  0  0  0  0  0  0  0  0  0  0  0
    3.0916    1.6825    0.4120 C   0  0  0  0  0  0  0  0  0  0  0  0
    3.4877    2.9886    0.6884 C   0  0  0  0  0  0  0  0  0  0  0  0
    2.4098    5.8738    2.5379 O   0  0  0  0  0  0  0  0  0  0  0  0
    4.2801    5.6419    1.2664 O   0  0  0  0  0  0  0  0  0  0  0  0
    0.2166   -0.4833    0.4208 N   0  0  0  0  0  0  0  0  0  0  0  0
    1.5962   -0.2782    0.6185 C   0  0  1  0  0  0  0  0  0  0  0  0
    2.4913   -0.8309   -0.4482 C   0  0  0  0  0  0  0  0  0  0  0  0
    2.0491   -2.0893   -1.0713 C   0  0  2  0  0  0  0  0  0  0  0  0
    0.7016   -2.5794   -0.7462 C   0  0  0  0  0  0  0  0  0  0  0  0
   -0.1187   -1.8319    0.2344 C   0  0  0  0  0  0  0  0  0  0  0  0
   -0.5324    0.4840   -0.2545 C   0  0  0  0  0  0  0  0  0  0  0  0
   -4.3000   -0.1557    2.4982 N   0  0  0  0  0  0  0  0  0  0  0  0
   -3.1551   -0.2854    3.1805 C   0  0  0  0  0  0  0  0  0  0  0  0
   -2.0910   -0.1452    2.3140 C   0  0  0  0  0  0  0  0  0  0  0  0
   -2.6173    0.0827    1.0577 C   0  0  0  0  0  0  0  0  0  0  0  0
   -1.9967    0.2709   -0.1913 C   0  0  0  0  0  0  0  0  0  0  0  0
   -2.8488    0.4337   -1.2754 C   0  0  0  0  0  0  0  0  0  0  0  0
   -4.2175    0.4148   -1.1062 C   0  0  0  0  0  0  0  0  0  0  0  0
   -4.8111    0.2328    0.1355 C   0  0  0  0  0  0  0  0  0  0  0  0
   -3.9891    0.0687    1.2034 C   0  0  0  0  0  0  0  0  0  0  0  0
   -6.2997    0.2390    0.2942 C   0  0  0  0  0  0  0  0  0  0  0  0
   -2.3208    0.6120   -2.5247 O   0  0  0  0  0  0  0  0  0  0  0  0
   -3.1740    0.7836   -3.6339 C   0  0  0  0  0  0  0  0  0  0  0  0
    2.9754   -3.1098   -0.7567 O   0  0  0  0  0  0  0  0  0  0  0  0
    3.6722   -3.5595   -1.8657 C   0  0  0  0  0  0  0  0  0  0  0  0
    4.6113   -4.6612   -1.4631 C   0  0  0  0  0  0  0  0  0  0  0  0
  1  2  1  0
  2  3  2  0
  3  4  1  0
  4  5  2  0
  5  6  1  0
  6  7  2  0
  2  7  1  0
  1  8  2  0
  1  9  1  0
 10 11  1  0
 11 12  1  6
 12 13  1  0
 13 14  1  0
 14 15  1  0
 10 15  1  0
 17 18  1  0
 18 19  2  0
 19 20  1  0
 20 21  2  0
 21 22  1  0
 22 23  2  0
 23 24  1  0
 24 25  2  0
 17 25  1  0
 20 25  1  0
 24 26  1  0
 27 28  1  0
 22 27  1  0
 16 21  1  0
 10 16  1  0
 30 31  1  0
 29 30  1  0
 13 29  1  1
 11  5  1  0
M  END
>  <molecule_name>  (49) 
IPTACOPAN

>  <target_name>  (49) 
Complement factor B

>  <organism>  (49) 
Homo sapiens

>  <chembl_id>  (49) 
CHEMBL4594448

>  <activity_info>  (49) 
IC50: 7.07|Kd: 8.10

>  <pACT>  (49) 
7.327500000000001

>  <ID>  (49) 
RENRQMCACQEWFC-UGKGYDQZSA-N

>  <conforer_id>  (49) 
conf49

$$$$
RENRQMCACQEWFC-UGKGYDQZSA-N
     RDKit          3D

 31 34  0  0  1  0  0  0  0  0999 V2000
    3.1112    5.1417    1.8089 C   0  0  0  0  0  0  0  0  0  0  0  0
    2.7050    3.7733    1.5320 C   0  0  0  0  0  0  0  0  0  0  0  0
    1.5750    3.2148    2.0509 C   0  0  0  0  0  0  0  0  0  0  0  0
    1.1959    1.9031    1.7632 C   0  0  0  0  0  0  0  0  0  0  0  0
    1.9518    1.1182    0.9375 C   0  0  0  0  0  0  0  0  0  0  0  0
    3.0916    1.6825    0.4120 C   0  0  0  0  0  0  0  0  0  0  0  0
    3.4877    2.9886    0.6884 C   0  0  0  0  0  0  0  0  0  0  0  0
    2.4098    5.8738    2.5379 O   0  0  0  0  0  0  0  0  0  0  0  0
    4.2801    5.6419    1.2664 O   0  0  0  0  0  0  0  0  0  0  0  0
    0.2166   -0.4833    0.4208 N   0  0  0  0  0  0  0  0  0  0  0  0
    1.5962   -0.2782    0.6185 C   0  0  1  0  0  0  0  0  0  0  0  0
    2.4913   -0.8309   -0.4482 C   0  0  0  0  0  0  0  0  0  0  0  0
    2.0491   -2.0893   -1.0713 C   0  0  2  0  0  0  0  0  0  0  0  0
    0.7016   -2.5794   -0.7462 C   0  0  0  0  0  0  0  0  0  0  0  0
   -0.1187   -1.8319    0.2344 C   0  0  0  0  0  0  0  0  0  0  0  0
   -0.5324    0.4840   -0.2545 C   0  0  0  0  0  0  0  0  0  0  0  0
   -4.3000   -0.1557    2.4982 N   0  0  0  0  0  0  0  0  0  0  0  0
   -3.1551   -0.2854    3.1805 C   0  0  0  0  0  0  0  0  0  0  0  0
   -2.0910   -0.1452    2.3140 C   0  0  0  0  0  0  0  0  0  0  0  0
   -2.6173    0.0827    1.0577 C   0  0  0  0  0  0  0  0  0  0  0  0
   -1.9967    0.2709   -0.1913 C   0  0  0  0  0  0  0  0  0  0  0  0
   -2.8488    0.4337   -1.2754 C   0  0  0  0  0  0  0  0  0  0  0  0
   -4.2175    0.4148   -1.1062 C   0  0  0  0  0  0  0  0  0  0  0  0
   -4.8111    0.2328    0.1355 C   0  0  0  0  0  0  0  0  0  0  0  0
   -3.9891    0.0687    1.2034 C   0  0  0  0  0  0  0  0  0  0  0  0
   -6.2997    0.2390    0.2942 C   0  0  0  0  0  0  0  0  0  0  0  0
   -2.3208    0.6120   -2.5247 O   0  0  0  0  0  0  0  0  0  0  0  0
   -3.1740    0.7836   -3.6339 C   0  0  0  0  0  0  0  0  0  0  0  0
    2.9754   -3.1098   -0.7567 O   0  0  0  0  0  0  0  0  0  0  0  0
    3.6722   -3.5595   -1.8657 C   0  0  0  0  0  0  0  0  0  0  0  0
    4.6113   -4.6612   -1.4631 C   0  0  0  0  0  0  0  0  0  0  0  0
  1  2  1  0
  2  3  2  0
  3  4  1  0
  4  5  2  0
  5  6  1  0
  6  7  2  0
  2  7  1  0
  1  8  2  0
  1  9  1  0
 10 11  1  0
 11 12  1  6
 12 13  1  0
 13 14  1  0
 14 15  1  0
 10 15  1  0
 17 18  1  0
 18 19  2  0
 19 20  1  0
 20 21  2  0
 21 22  1  0
 22 23  2  0
 23 24  1  0
 24 25  2  0
 17 25  1  0
 20 25  1  0
 24 26  1  0
 27 28  1  0
 22 27  1  0
 16 21  1  0
 10 16  1  0
 30 31  1  0
 29 30  1  0
 13 29  1  1
 11  5  1  0
M  END
>  <molecule_name>  (50) 
IPTACOPAN

>  <target_name>  (50) 
Complement factor B

>  <organism>  (50) 
Homo sapiens

>  <chembl_id>  (50) 
CHEMBL4594448

>  <activity_info>  (50) 
IC50: 7.07|Kd: 8.10

>  <pACT>  (50) 
7.327500000000001

>  <ID>  (50) 
RENRQMCACQEWFC-UGKGYDQZSA-N

>  <conforer_id>  (50) 
conf49

$$$$
