RENRQMCACQEWFC-UGKGYDQZSA-N
     RDKit          2D

 31 34  0  0  1  0  0  0  0  0999 V2000
   11.7165   -1.6501    0.0000 C   0  0  0  0  0  0  0  0  0  0  0  0
   12.4309   -2.0626    0.0000 C   0  0  0  0  0  0  0  0  0  0  0  0
   13.1455   -1.6501    0.0000 C   0  0  0  0  0  0  0  0  0  0  0  0
   13.8599   -2.0626    0.0000 C   0  0  0  0  0  0  0  0  0  0  0  0
   13.8599   -2.8875    0.0000 C   0  0  0  0  0  0  0  0  0  0  0  0
   13.1455   -3.3000    0.0000 C   0  0  0  0  0  0  0  0  0  0  0  0
   12.4309   -2.8875    0.0000 C   0  0  0  0  0  0  0  0  0  0  0  0
   11.7165   -0.8250    0.0000 O   0  0  0  0  0  0  0  0  0  0  0  0
   11.0020   -2.0626    0.0000 O   0  0  0  0  0  0  0  0  0  0  0  0
   14.5744   -4.1251    0.0000 N   0  0  0  0  0  0  0  0  0  0  0  0
   14.5744   -3.3000    0.0000 C   0  0  0  0  0  0  0  0  0  0  0  0
   15.2889   -2.8875    0.0000 C   0  0  0  0  0  0  0  0  0  0  0  0
   16.0033   -3.3000    0.0000 C   0  0  0  0  0  0  0  0  0  0  0  0
   16.0033   -4.1251    0.0000 C   0  0  0  0  0  0  0  0  0  0  0  0
   15.2889   -4.5375    0.0000 C   0  0  0  0  0  0  0  0  0  0  0  0
   13.8599   -4.5375    0.0000 C   0  0  0  0  0  0  0  0  0  0  0  0
   12.3607   -6.8551    0.0000 N   0  0  0  0  0  0  0  0  0  0  0  0
   11.8759   -6.1876    0.0000 C   0  0  0  0  0  0  0  0  0  0  0  0
   12.3607   -5.5201    0.0000 C   0  0  0  0  0  0  0  0  0  0  0  0
   13.1455   -5.7751    0.0000 C   0  0  0  0  0  0  0  0  0  0  0  0
   13.8599   -5.3626    0.0000 C   0  0  0  0  0  0  0  0  0  0  0  0
   14.5744   -5.7751    0.0000 C   0  0  0  0  0  0  0  0  0  0  0  0
   14.5744   -6.6000    0.0000 C   0  0  0  0  0  0  0  0  0  0  0  0
   13.8599   -7.0125    0.0000 C   0  0  0  0  0  0  0  0  0  0  0  0
   13.1455   -6.6000    0.0000 C   0  0  0  0  0  0  0  0  0  0  0  0
   13.8599   -7.8377    0.0000 C   0  0  0  0  0  0  0  0  0  0  0  0
   15.2889   -5.3626    0.0000 O   0  0  0  0  0  0  0  0  0  0  0  0
   16.0033   -5.7751    0.0000 C   0  0  0  0  0  0  0  0  0  0  0  0
   16.7178   -2.8875    0.0000 O   0  0  0  0  0  0  0  0  0  0  0  0
   17.4324   -3.3000    0.0000 C   0  0  0  0  0  0  0  0  0  0  0  0
   18.1469   -2.8875    0.0000 C   0  0  0  0  0  0  0  0  0  0  0  0
  1  2  1  0
  2  3  2  0
  3  4  1  0
  4  5  2  0
  5  6  1  0
  6  7  2  0
  2  7  1  0
  1  8  2  0
  1  9  1  0
 10 11  1  0
 11 12  1  6
 12 13  1  0
 13 14  1  0
 14 15  1  0
 10 15  1  0
 17 18  1  0
 18 19  2  0
 19 20  1  0
 20 21  2  0
 21 22  1  0
 22 23  2  0
 23 24  1  0
 24 25  2  0
 17 25  1  0
 20 25  1  0
 24 26  1  0
 27 28  1  0
 22 27  1  0
 16 21  1  0
 10 16  1  0
 30 31  1  0
 29 30  1  0
 13 29  1  1
 11  5  1  0
M  END
>  <molecule_name>  (1) 
IPTACOPAN

>  <target_name>  (1) 
Complement factor B

>  <organism>  (1) 
Homo sapiens

>  <chembl_id>  (1) 
CHEMBL4594448

>  <activity_info>  (1) 
IC50: 7.07|Kd: 8.10

>  <pACT>  (1) 
7.327500000000001

>  <ID>  (1) 
RENRQMCACQEWFC-UGKGYDQZSA-N

$$$$
